# LPF package for MODFLOW-2005 generated by Flopy 3.3.6
        53    -1E+30         0  
         1
         0
   0.000000E+00
         0
         0
INTERNAL               1 (364E15.6) -1 #hk layer 1                    
   2.010000E+00   2.010000E+00   2.010000E+00   2.010000E+00   2.010000E+00   2.010000E+00   2.010000E+00   2.010000E+00   2.010000E+00   2.010000E+00   2.010000E+00   2.010000E+00   2.010000E+00   2.010000E+00   2.010000E+00   2.010000E+00   2.010000E+00   2.010000E+00   2.010000E+00   2.010000E+00   2.010000E+00   2.010000E+00   2.010000E+00   2.010000E+00   2.010000E+00   2.010000E+00   2.010000E+00   2.010000E+00   2.010000E+00   2.010000E+00   2.010000E+00   2.010000E+00   2.010000E+00   2.010000E+00   2.010000E+00   2.010000E+00   2.010000E+00   2.010000E+00   2.010000E+00   2.010000E+00   2.010000E+00   2.010000E+00   2.010000E+00   2.010000E+00   2.010000E+00   2.010000E+00   2.010000E+00   2.010000E+00   2.010000E+00   2.010000E+00   2.010000E+00   2.010000E+00   2.010000E+00   2.010000E+00   2.010000E+00   2.010000E+00   2.010000E+00   2.010000E+00   2.010000E+00   2.010000E+00   2.010000E+00   2.010000E+00   2.010000E+00   2.010000E+00   2.010000E+00   2.010000E+00   2.010000E+00   2.010000E+00   2.010000E+00   2.010000E+00   2.010000E+00   2.010000E+00   2.010000E+00   2.010000E+00   2.010000E+00   2.010000E+00   2.010000E+00   2.010000E+00   2.010000E+00   2.010000E+00   2.010000E+00   2.010000E+00   2.010000E+00   2.010000E+00   2.010000E+00   2.010000E+00   2.010000E+00   2.010000E+00   2.010000E+00   2.010000E+00   2.010000E+00   2.010000E+00   2.010000E+00   2.010000E+00   2.010000E+00   2.010000E+00   2.010000E+00   2.010000E+00   2.010000E+00   2.010000E+00   2.010000E+00   2.010000E+00   2.010000E+00   2.010000E+00   2.010000E+00   2.010000E+00   2.010000E+00   2.010000E+00   2.010000E+00   2.010000E+00   2.010000E+00   2.010000E+00   2.010000E+00   2.010000E+00   2.010000E+00   2.010000E+00   2.010000E+00   2.010000E+00   2.010000E+00   2.010000E+00   2.010000E+00   2.010000E+00   2.010000E+00   2.010000E+00   2.010000E+00   2.010000E+00   2.010000E+00   2.010000E+00   2.010000E+00   2.010000E+00   2.010000E+00   2.010000E+00   2.010000E+00   2.010000E+00   2.010000E+00   2.010000E+00   2.010000E+00   2.010000E+00   2.010000E+00   2.010000E+00   2.010000E+00   2.010000E+00   2.010000E+00   2.010000E+00   2.010000E+00   2.010000E+00   2.010000E+00   2.010000E+00   2.010000E+00   2.010000E+00   2.010000E+00   2.010000E+00   2.010000E+00   2.010000E+00   2.010000E+00   2.010000E+00   2.010000E+00   2.010000E+00   2.010000E+00   2.010000E+00   2.010000E+00   2.010000E+00   2.010000E+00   2.010000E+00   2.010000E+00   2.010000E+00   2.010000E+00   2.010000E+00   2.010000E+00   2.010000E+00   2.010000E+00   2.010000E+00   2.010000E+00   2.010000E+00   2.010000E+00   2.010000E+00   2.010000E+00   2.010000E+00   2.010000E+00   2.010000E+00   2.010000E+00   2.010000E+00   2.010000E+00   2.010000E+00   2.010000E+00   2.010000E+00   2.010000E+00   2.010000E+00   2.010000E+00   2.010000E+00   2.010000E+00   2.010000E+00   2.010000E+00   2.010000E+00   2.010000E+00   2.010000E+00   2.010000E+00   2.010000E+00   2.010000E+00   2.010000E+00   2.010000E+00   2.010000E+00   2.010000E+00   2.010000E+00   2.010000E+00   2.010000E+00   2.010000E+00   2.010000E+00   2.010000E+00   2.010000E+00   2.010000E+00   2.010000E+00   2.010000E+00   2.010000E+00   2.010000E+00   2.010000E+00   2.010000E+00   2.010000E+00   2.010000E+00   2.010000E+00   2.010000E+00   2.010000E+00   2.010000E+00   2.010000E+00   2.010000E+00   2.010000E+00   2.010000E+00   2.010000E+00   2.010000E+00   2.010000E+00   2.010000E+00   2.010000E+00   2.010000E+00   2.010000E+00   2.010000E+00   2.010000E+00   2.010000E+00   2.010000E+00   2.010000E+00   2.010000E+00   2.010000E+00   2.010000E+00   2.010000E+00   2.010000E+00   2.010000E+00   2.010000E+00   2.010000E+00   2.010000E+00   2.010000E+00   2.010000E+00   2.010000E+00   2.010000E+00   2.010000E+00   2.010000E+00   2.010000E+00   2.010000E+00   2.010000E+00   2.010000E+00   2.010000E+00   2.010000E+00   2.010000E+00   2.010000E+00   2.010000E+00   2.010000E+00   2.010000E+00   2.010000E+00   2.010000E+00   2.010000E+00   2.010000E+00   2.010000E+00   2.010000E+00   2.010000E+00   2.010000E+00   2.010000E+00   2.010000E+00   2.010000E+00   2.010000E+00   2.010000E+00   2.010000E+00   2.010000E+00   2.010000E+00   2.010000E+00   2.010000E+00   2.010000E+00   2.010000E+00   2.010000E+00   2.010000E+00   2.010000E+00   2.010000E+00   2.010000E+00   2.010000E+00   2.010000E+00   2.010000E+00   2.010000E+00   2.010000E+00   2.010000E+00   2.010000E+00   2.010000E+00   2.010000E+00   2.010000E+00   2.010000E+00   2.010000E+00   2.010000E+00   2.010000E+00   2.010000E+00   2.010000E+00   2.010000E+00   2.010000E+00   2.010000E+00   2.010000E+00   2.010000E+00   2.010000E+00   2.010000E+00   2.010000E+00   2.010000E+00   2.010000E+00   2.010000E+00   2.010000E+00   2.010000E+00   2.010000E+00   2.010000E+00   2.010000E+00   2.010000E+00   2.010000E+00   2.010000E+00   2.010000E+00   2.010000E+00   2.010000E+00   2.010000E+00   2.010000E+00   2.010000E+00   2.010000E+00   2.010000E+00   2.010000E+00   2.010000E+00   2.010000E+00   2.010000E+00   2.010000E+00   2.010000E+00   2.010000E+00   2.010000E+00   2.010000E+00   2.010000E+00   2.010000E+00   2.010000E+00   2.010000E+00   2.010000E+00   2.010000E+00   2.010000E+00   2.010000E+00   2.010000E+00   2.010000E+00   2.010000E+00   2.010000E+00   2.010000E+00   2.010000E+00   2.010000E+00   2.010000E+00   2.010000E+00   2.010000E+00   2.010000E+00   2.010000E+00   2.010000E+00   2.010000E+00
   2.010000E+00   2.010000E+00   2.010000E+00   2.010000E+00   2.010000E+00   2.010000E+00   2.010000E+00   2.010000E+00   2.010000E+00   2.010000E+00   2.010000E+00   2.010000E+00   2.010000E+00   2.010000E+00   2.010000E+00   2.010000E+00   2.010000E+00   2.010000E+00   2.010000E+00   2.010000E+00   2.010000E+00   2.010000E+00   2.010000E+00   2.010000E+00   2.010000E+00   2.010000E+00   2.010000E+00   2.010000E+00   2.010000E+00   2.010000E+00   2.010000E+00   2.010000E+00   2.010000E+00   2.010000E+00   2.010000E+00   2.010000E+00   2.010000E+00   2.010000E+00   2.010000E+00   2.010000E+00   2.010000E+00   2.010000E+00   2.010000E+00   2.010000E+00   2.010000E+00   2.010000E+00   2.010000E+00   2.010000E+00   2.010000E+00   2.010000E+00   2.010000E+00   2.010000E+00   2.010000E+00   2.010000E+00   2.010000E+00   2.010000E+00   2.010000E+00   2.010000E+00   2.010000E+00   2.010000E+00   2.010000E+00   2.010000E+00   2.010000E+00   2.010000E+00   2.010000E+00   2.010000E+00   2.010000E+00   2.010000E+00   2.010000E+00   2.010000E+00   2.010000E+00   2.010000E+00   2.010000E+00   2.010000E+00   2.010000E+00   2.010000E+00   2.010000E+00   2.010000E+00   2.010000E+00   2.010000E+00   2.010000E+00   2.010000E+00   2.010000E+00   2.010000E+00   2.010000E+00   2.010000E+00   2.010000E+00   2.010000E+00   2.010000E+00   2.010000E+00   2.010000E+00   2.010000E+00   2.010000E+00   2.010000E+00   2.010000E+00   2.010000E+00   2.010000E+00   2.010000E+00   2.010000E+00   2.010000E+00   2.010000E+00   2.010000E+00   2.010000E+00   2.010000E+00   2.010000E+00   2.010000E+00   2.010000E+00   2.010000E+00   2.010000E+00   2.010000E+00   2.010000E+00   2.010000E+00   2.010000E+00   2.010000E+00   2.010000E+00   2.010000E+00   2.010000E+00   2.010000E+00   2.010000E+00   2.010000E+00   2.010000E+00   2.010000E+00   2.010000E+00   2.010000E+00   2.010000E+00   2.010000E+00   2.010000E+00   2.010000E+00   2.010000E+00   2.010000E+00   2.010000E+00   2.010000E+00   2.010000E+00   2.010000E+00   2.010000E+00   2.010000E+00   2.010000E+00   2.010000E+00   2.010000E+00   2.010000E+00   2.010000E+00   2.010000E+00   2.010000E+00   2.010000E+00   2.010000E+00   2.010000E+00   2.010000E+00   2.010000E+00   2.010000E+00   2.010000E+00   2.010000E+00   2.010000E+00   2.010000E+00   2.010000E+00   2.010000E+00   2.010000E+00   2.010000E+00   2.010000E+00   2.010000E+00   2.010000E+00   2.010000E+00   2.010000E+00   2.010000E+00   2.010000E+00   2.010000E+00   2.010000E+00   2.010000E+00   2.010000E+00   2.010000E+00   2.010000E+00   2.010000E+00   2.010000E+00   2.010000E+00   2.010000E+00   2.010000E+00   2.010000E+00   2.010000E+00   2.010000E+00   2.010000E+00   2.010000E+00   2.010000E+00   2.010000E+00   2.010000E+00   2.010000E+00   2.010000E+00   2.010000E+00   2.010000E+00   2.010000E+00   2.010000E+00   2.010000E+00   2.010000E+00   2.010000E+00   2.010000E+00   2.010000E+00   2.010000E+00   2.010000E+00   2.010000E+00   2.010000E+00   2.010000E+00   2.010000E+00   2.010000E+00   2.010000E+00   2.010000E+00   2.010000E+00   2.010000E+00   2.010000E+00   2.010000E+00   2.010000E+00   2.010000E+00   2.010000E+00   2.010000E+00   2.010000E+00   2.010000E+00   2.010000E+00   2.010000E+00   2.010000E+00   2.010000E+00   2.010000E+00   2.010000E+00   2.010000E+00   2.010000E+00   2.010000E+00   2.010000E+00   2.010000E+00   2.010000E+00   2.010000E+00   2.010000E+00   2.010000E+00   2.010000E+00   2.010000E+00   2.010000E+00   2.010000E+00   2.010000E+00   2.010000E+00   2.010000E+00   2.010000E+00   2.010000E+00   2.010000E+00   2.010000E+00   2.010000E+00   2.010000E+00   2.010000E+00   2.010000E+00   2.010000E+00   2.010000E+00   2.010000E+00   2.010000E+00   2.010000E+00   2.010000E+00   2.010000E+00   2.010000E+00   2.010000E+00   2.010000E+00   2.010000E+00   2.010000E+00   2.010000E+00   2.010000E+00   2.010000E+00   2.010000E+00   2.010000E+00   2.010000E+00   2.010000E+00   2.010000E+00   2.010000E+00   2.010000E+00   2.010000E+00   2.010000E+00   2.010000E+00   2.010000E+00   2.010000E+00   2.010000E+00   2.010000E+00   2.010000E+00   2.010000E+00   2.010000E+00   2.010000E+00   2.010000E+00   2.010000E+00   2.010000E+00   2.010000E+00   2.010000E+00   2.010000E+00   2.010000E+00   2.010000E+00   2.010000E+00   2.010000E+00   2.010000E+00   2.010000E+00   2.010000E+00   2.010000E+00   2.010000E+00   2.010000E+00   2.010000E+00   2.010000E+00   2.010000E+00   2.010000E+00   2.010000E+00   2.010000E+00   2.010000E+00   2.010000E+00   2.010000E+00   2.010000E+00   2.010000E+00   2.010000E+00   2.010000E+00   2.010000E+00   2.010000E+00   2.010000E+00   2.010000E+00   2.010000E+00   2.010000E+00   2.010000E+00   2.010000E+00   2.010000E+00   2.010000E+00   2.010000E+00   2.010000E+00   2.010000E+00   2.010000E+00   2.010000E+00   2.010000E+00   2.010000E+00   2.010000E+00   2.010000E+00   2.010000E+00   2.010000E+00   2.010000E+00   2.010000E+00   2.010000E+00   2.010000E+00   2.010000E+00   2.010000E+00   2.010000E+00   2.010000E+00   2.010000E+00   2.010000E+00   2.010000E+00   2.010000E+00   2.010000E+00   2.010000E+00   2.010000E+00   2.010000E+00   2.010000E+00   2.010000E+00   2.010000E+00   2.010000E+00   2.010000E+00   2.010000E+00   2.010000E+00   2.010000E+00   2.010000E+00   2.010000E+00   2.010000E+00   2.010000E+00   2.010000E+00   2.010000E+00   2.010000E+00   2.010000E+00   2.010000E+00   2.010000E+00   2.010000E+00   2.010000E+00   2.010000E+00   2.010000E+00
   2.010000E+00   2.010000E+00   2.010000E+00   2.010000E+00   2.010000E+00   2.010000E+00   2.010000E+00   2.010000E+00   2.010000E+00   2.010000E+00   2.010000E+00   2.010000E+00   2.010000E+00   2.010000E+00   2.010000E+00   2.010000E+00   2.010000E+00   2.010000E+00   2.010000E+00   2.010000E+00   2.010000E+00   2.010000E+00   2.010000E+00   2.010000E+00   2.010000E+00   2.010000E+00   2.010000E+00   2.010000E+00   2.010000E+00   2.010000E+00   2.010000E+00   2.010000E+00   2.010000E+00   2.010000E+00   2.010000E+00   2.010000E+00   2.010000E+00   2.010000E+00   2.010000E+00   2.010000E+00   2.010000E+00   2.010000E+00   2.010000E+00   2.010000E+00   2.010000E+00   2.010000E+00   2.010000E+00   2.010000E+00   2.010000E+00   2.010000E+00   2.010000E+00   2.010000E+00   2.010000E+00   2.010000E+00   2.010000E+00   2.010000E+00   2.010000E+00   2.010000E+00   2.010000E+00   2.010000E+00   2.010000E+00   2.010000E+00   2.010000E+00   2.010000E+00   2.010000E+00   2.010000E+00   2.010000E+00   2.010000E+00   2.010000E+00   2.010000E+00   2.010000E+00   2.010000E+00   2.010000E+00   2.010000E+00   2.010000E+00   2.010000E+00   2.010000E+00   2.010000E+00   2.010000E+00   2.010000E+00   2.010000E+00   2.010000E+00   2.010000E+00   2.010000E+00   2.010000E+00   2.010000E+00   2.010000E+00   2.010000E+00   2.010000E+00   2.010000E+00   2.010000E+00   2.010000E+00   2.010000E+00   2.010000E+00   2.010000E+00   2.010000E+00   2.010000E+00   2.010000E+00   2.010000E+00   2.010000E+00   2.010000E+00   2.010000E+00   2.010000E+00   2.010000E+00   2.010000E+00   2.010000E+00   2.010000E+00   2.010000E+00   2.010000E+00   2.010000E+00   2.010000E+00   2.010000E+00   2.010000E+00   2.010000E+00   2.010000E+00   2.010000E+00   2.010000E+00   2.010000E+00   2.010000E+00   2.010000E+00   2.010000E+00   2.010000E+00   2.010000E+00   2.010000E+00   2.010000E+00   2.010000E+00   2.010000E+00   2.010000E+00   2.010000E+00   2.010000E+00   2.010000E+00   2.010000E+00   2.010000E+00   2.010000E+00   2.010000E+00   2.010000E+00   2.010000E+00   2.010000E+00   2.010000E+00   2.010000E+00   2.010000E+00   2.010000E+00   2.010000E+00   2.010000E+00   2.010000E+00   2.010000E+00   2.010000E+00   2.010000E+00   2.010000E+00   2.010000E+00   2.010000E+00   2.010000E+00   2.010000E+00   2.010000E+00   2.010000E+00   2.010000E+00   2.010000E+00   2.010000E+00   2.010000E+00   2.010000E+00   2.010000E+00   2.010000E+00   2.010000E+00   2.010000E+00   2.010000E+00   2.010000E+00   2.010000E+00   2.010000E+00   2.010000E+00   2.010000E+00   2.010000E+00   2.010000E+00   2.010000E+00   2.010000E+00   2.010000E+00   2.010000E+00   2.010000E+00   2.010000E+00   2.010000E+00   2.010000E+00   2.010000E+00   2.010000E+00   2.010000E+00   2.010000E+00   2.010000E+00   2.010000E+00   2.010000E+00   2.010000E+00   2.010000E+00   2.010000E+00   2.010000E+00   2.010000E+00   2.010000E+00   2.010000E+00   2.010000E+00   2.010000E+00   2.010000E+00   2.010000E+00   2.010000E+00   2.010000E+00   2.010000E+00   2.010000E+00   2.010000E+00   2.010000E+00   2.010000E+00   2.010000E+00   2.010000E+00   2.010000E+00   2.010000E+00   2.010000E+00   2.010000E+00   2.010000E+00   2.010000E+00   2.010000E+00   2.010000E+00   2.010000E+00   2.010000E+00   2.010000E+00   2.010000E+00   2.010000E+00   2.010000E+00   2.010000E+00   2.010000E+00   2.010000E+00   2.010000E+00   2.010000E+00   2.010000E+00   2.010000E+00   2.010000E+00   2.010000E+00   2.010000E+00   2.010000E+00   2.010000E+00   2.010000E+00   2.010000E+00   2.010000E+00   2.010000E+00   2.010000E+00   2.010000E+00   2.010000E+00   2.010000E+00   2.010000E+00   2.010000E+00   2.010000E+00   2.010000E+00   2.010000E+00   2.010000E+00   2.010000E+00   2.010000E+00   2.010000E+00   2.010000E+00   2.010000E+00   2.010000E+00   2.010000E+00   2.010000E+00   2.010000E+00   2.010000E+00   2.010000E+00   2.010000E+00   2.010000E+00   2.010000E+00   2.010000E+00   2.010000E+00   2.010000E+00   2.010000E+00   2.010000E+00   2.010000E+00   2.010000E+00   2.010000E+00   2.010000E+00   2.010000E+00   2.010000E+00   2.010000E+00   2.010000E+00   2.010000E+00   2.010000E+00   2.010000E+00   2.010000E+00   2.010000E+00   2.010000E+00   2.010000E+00   2.010000E+00   2.010000E+00   2.010000E+00   2.010000E+00   2.010000E+00   2.010000E+00   2.010000E+00   2.010000E+00   2.010000E+00   2.010000E+00   2.010000E+00   2.010000E+00   2.010000E+00   2.010000E+00   2.010000E+00   2.010000E+00   2.010000E+00   2.010000E+00   2.010000E+00   2.010000E+00   2.010000E+00   2.010000E+00   2.010000E+00   2.010000E+00   2.010000E+00   2.010000E+00   2.010000E+00   2.010000E+00   2.010000E+00   2.010000E+00   2.010000E+00   2.010000E+00   2.010000E+00   2.010000E+00   2.010000E+00   2.010000E+00   2.010000E+00   2.010000E+00   2.010000E+00   2.010000E+00   2.010000E+00   2.010000E+00   2.010000E+00   2.010000E+00   2.010000E+00   2.010000E+00   2.010000E+00   2.010000E+00   2.010000E+00   2.010000E+00   2.010000E+00   2.010000E+00   2.010000E+00   2.010000E+00   2.010000E+00   2.010000E+00   2.010000E+00   2.010000E+00   2.010000E+00   2.010000E+00   2.010000E+00   2.010000E+00   2.010000E+00   2.010000E+00   2.010000E+00   2.010000E+00   2.010000E+00   2.010000E+00   2.010000E+00   2.010000E+00   2.010000E+00   2.010000E+00   2.010000E+00   2.010000E+00   2.010000E+00   2.010000E+00   2.010000E+00   2.010000E+00   2.010000E+00   2.010000E+00   2.010000E+00   2.010000E+00   2.010000E+00
   2.010000E+00   2.010000E+00   2.010000E+00   2.010000E+00   2.010000E+00   2.010000E+00   2.010000E+00   2.010000E+00   2.010000E+00   2.010000E+00   2.010000E+00   2.010000E+00   2.010000E+00   2.010000E+00   2.010000E+00   2.010000E+00   2.010000E+00   2.010000E+00   2.010000E+00   2.010000E+00   2.010000E+00   2.010000E+00   2.010000E+00   2.010000E+00   2.010000E+00   2.010000E+00   2.010000E+00   2.010000E+00   2.010000E+00   2.010000E+00   2.010000E+00   2.010000E+00   2.010000E+00   2.010000E+00   2.010000E+00   2.010000E+00   2.010000E+00   2.010000E+00   2.010000E+00   2.010000E+00   2.010000E+00   2.010000E+00   2.010000E+00   2.010000E+00   2.010000E+00   2.010000E+00   2.010000E+00   2.010000E+00   2.010000E+00   2.010000E+00   2.010000E+00   2.010000E+00   2.010000E+00   2.010000E+00   2.010000E+00   2.010000E+00   2.010000E+00   2.010000E+00   2.010000E+00   2.010000E+00   2.010000E+00   2.010000E+00   2.010000E+00   2.010000E+00   2.010000E+00   2.010000E+00   2.010000E+00   2.010000E+00   2.010000E+00   2.010000E+00   2.010000E+00   2.010000E+00   2.010000E+00   2.010000E+00   2.010000E+00   2.010000E+00   2.010000E+00   2.010000E+00   2.010000E+00   2.010000E+00   2.010000E+00   2.010000E+00   2.010000E+00   2.010000E+00   2.010000E+00   2.010000E+00   2.010000E+00   2.010000E+00   2.010000E+00   2.010000E+00   2.010000E+00   2.010000E+00   2.010000E+00   2.010000E+00   2.010000E+00   2.010000E+00   2.010000E+00   2.010000E+00   2.010000E+00   2.010000E+00   2.010000E+00   2.010000E+00   2.010000E+00   2.010000E+00   2.010000E+00   2.010000E+00   2.010000E+00   2.010000E+00   2.010000E+00   2.010000E+00   2.010000E+00   2.010000E+00   2.010000E+00   2.010000E+00   2.010000E+00   2.010000E+00   2.010000E+00   2.010000E+00   2.010000E+00   2.010000E+00   2.010000E+00   2.010000E+00   2.010000E+00   2.010000E+00   2.010000E+00   2.010000E+00   2.010000E+00   2.010000E+00   2.010000E+00   2.010000E+00   2.010000E+00   2.010000E+00   2.010000E+00   2.010000E+00   2.010000E+00   2.010000E+00   2.010000E+00   2.010000E+00   2.010000E+00   2.010000E+00   2.010000E+00   2.010000E+00   2.010000E+00   2.010000E+00   2.010000E+00   2.010000E+00   2.010000E+00   2.010000E+00   2.010000E+00   2.010000E+00   2.010000E+00   2.010000E+00   2.010000E+00   2.010000E+00   2.010000E+00   2.010000E+00   2.010000E+00   2.010000E+00   2.010000E+00   2.010000E+00   2.010000E+00   2.010000E+00   2.010000E+00   2.010000E+00   2.010000E+00   2.010000E+00   2.010000E+00   2.010000E+00   2.010000E+00   2.010000E+00   2.010000E+00   2.010000E+00   2.010000E+00   2.010000E+00   2.010000E+00   2.010000E+00   2.010000E+00   2.010000E+00   2.010000E+00   2.010000E+00   2.010000E+00   2.010000E+00   2.010000E+00   2.010000E+00   2.010000E+00   2.010000E+00   2.010000E+00   2.010000E+00   2.010000E+00   2.010000E+00   2.010000E+00   2.010000E+00   2.010000E+00   2.010000E+00   2.010000E+00   2.010000E+00   2.010000E+00   2.010000E+00   2.010000E+00   2.010000E+00   2.010000E+00   2.010000E+00   2.010000E+00   2.010000E+00   2.010000E+00   2.010000E+00   2.010000E+00   2.010000E+00   2.010000E+00   2.010000E+00   2.010000E+00   2.010000E+00   2.010000E+00   2.010000E+00   2.010000E+00   2.010000E+00   2.010000E+00   2.010000E+00   2.010000E+00   2.010000E+00   2.010000E+00   2.010000E+00   2.010000E+00   2.010000E+00   2.010000E+00   2.010000E+00   2.010000E+00   2.010000E+00   2.010000E+00   2.010000E+00   2.010000E+00   2.010000E+00   2.010000E+00   2.010000E+00   2.010000E+00   2.010000E+00   2.010000E+00   2.010000E+00   2.010000E+00   2.010000E+00   2.010000E+00   2.010000E+00   2.010000E+00   2.010000E+00   2.010000E+00   2.010000E+00   2.010000E+00   2.010000E+00   2.010000E+00   2.010000E+00   2.010000E+00   2.010000E+00   2.010000E+00   2.010000E+00   2.010000E+00   2.010000E+00   2.010000E+00   2.010000E+00   2.010000E+00   2.010000E+00   2.010000E+00   2.010000E+00   2.010000E+00   2.010000E+00   2.010000E+00   2.010000E+00   2.010000E+00   2.010000E+00   2.010000E+00   2.010000E+00   2.010000E+00   2.010000E+00   2.010000E+00   2.010000E+00   2.010000E+00   2.010000E+00   2.010000E+00   2.010000E+00   2.010000E+00   2.010000E+00   2.010000E+00   2.010000E+00   2.010000E+00   2.010000E+00   2.010000E+00   2.010000E+00   2.010000E+00   2.010000E+00   2.010000E+00   2.010000E+00   2.010000E+00   2.010000E+00   2.010000E+00   2.010000E+00   2.010000E+00   2.010000E+00   2.010000E+00   2.010000E+00   2.010000E+00   2.010000E+00   2.010000E+00   2.010000E+00   2.010000E+00   2.010000E+00   2.010000E+00   2.010000E+00   2.010000E+00   2.010000E+00   2.010000E+00   2.010000E+00   2.010000E+00   2.010000E+00   2.010000E+00   2.010000E+00   2.010000E+00   2.010000E+00   2.010000E+00   2.010000E+00   2.010000E+00   2.010000E+00   2.010000E+00   2.010000E+00   2.010000E+00   2.010000E+00   2.010000E+00   2.010000E+00   2.010000E+00   2.010000E+00   2.010000E+00   2.010000E+00   2.010000E+00   2.010000E+00   2.010000E+00   2.010000E+00   2.010000E+00   2.010000E+00   2.010000E+00   2.010000E+00   2.010000E+00   2.010000E+00   2.010000E+00   2.010000E+00   2.010000E+00   2.010000E+00   2.010000E+00   2.010000E+00   2.010000E+00   2.010000E+00   2.010000E+00   2.010000E+00   2.010000E+00   2.010000E+00   2.010000E+00   2.010000E+00   2.010000E+00   2.010000E+00   2.010000E+00   2.010000E+00   2.010000E+00   2.010000E+00   2.010000E+00   2.010000E+00   2.010000E+00   2.010000E+00
   2.010000E+00   2.010000E+00   2.010000E+00   2.010000E+00   2.010000E+00   2.010000E+00   2.010000E+00   2.010000E+00   2.010000E+00   2.010000E+00   2.010000E+00   2.010000E+00   2.010000E+00   2.010000E+00   2.010000E+00   2.010000E+00   2.010000E+00   2.010000E+00   2.010000E+00   2.010000E+00   2.010000E+00   2.010000E+00   2.010000E+00   2.010000E+00   2.010000E+00   2.010000E+00   2.010000E+00   2.010000E+00   2.010000E+00   2.010000E+00   2.010000E+00   2.010000E+00   2.010000E+00   2.010000E+00   2.010000E+00   2.010000E+00   2.010000E+00   2.010000E+00   2.010000E+00   2.010000E+00   2.010000E+00   2.010000E+00   2.010000E+00   2.010000E+00   2.010000E+00   2.010000E+00   2.010000E+00   2.010000E+00   2.010000E+00   2.010000E+00   2.010000E+00   2.010000E+00   2.010000E+00   2.010000E+00   2.010000E+00   2.010000E+00   2.010000E+00   2.010000E+00   2.010000E+00   2.010000E+00   2.010000E+00   2.010000E+00   2.010000E+00   2.010000E+00   2.010000E+00   2.010000E+00   2.010000E+00   2.010000E+00   2.010000E+00   2.010000E+00   2.010000E+00   2.010000E+00   2.010000E+00   2.010000E+00   2.010000E+00   2.010000E+00   2.010000E+00   2.010000E+00   2.010000E+00   2.010000E+00   2.010000E+00   2.010000E+00   2.010000E+00   2.010000E+00   2.010000E+00   2.010000E+00   2.010000E+00   2.010000E+00   2.010000E+00   2.010000E+00   2.010000E+00   2.010000E+00   2.010000E+00   2.010000E+00   2.010000E+00   2.010000E+00   2.010000E+00   2.010000E+00   2.010000E+00   2.010000E+00   2.010000E+00   2.010000E+00   2.010000E+00   2.010000E+00   2.010000E+00   2.010000E+00   2.010000E+00   2.010000E+00   2.010000E+00   2.010000E+00   2.010000E+00   2.010000E+00   2.010000E+00   2.010000E+00   2.010000E+00   2.010000E+00   2.010000E+00   2.010000E+00   2.010000E+00   2.010000E+00   2.010000E+00   2.010000E+00   2.010000E+00   2.010000E+00   2.010000E+00   2.010000E+00   2.010000E+00   2.010000E+00   2.010000E+00   2.010000E+00   2.010000E+00   2.010000E+00   2.010000E+00   2.010000E+00   2.010000E+00   2.010000E+00   2.010000E+00   2.010000E+00   2.010000E+00   2.010000E+00   2.010000E+00   2.010000E+00   2.010000E+00   2.010000E+00   2.010000E+00   2.010000E+00   2.010000E+00   2.010000E+00   2.010000E+00   2.010000E+00   2.010000E+00   2.010000E+00   2.010000E+00   2.010000E+00   2.010000E+00   2.010000E+00   2.010000E+00   2.010000E+00   2.010000E+00   2.010000E+00   2.010000E+00   2.010000E+00   2.010000E+00   2.010000E+00   2.010000E+00   2.010000E+00   2.010000E+00   2.010000E+00   2.010000E+00   2.010000E+00   2.010000E+00   2.010000E+00   2.010000E+00   2.010000E+00   2.010000E+00   2.010000E+00   2.010000E+00   2.010000E+00   2.010000E+00   2.010000E+00   2.010000E+00   2.010000E+00   2.010000E+00   2.010000E+00   2.010000E+00   2.010000E+00   2.010000E+00   2.010000E+00   2.010000E+00   2.010000E+00   2.010000E+00   2.010000E+00   2.010000E+00   2.010000E+00   2.010000E+00   2.010000E+00   2.010000E+00   2.010000E+00   2.010000E+00   2.010000E+00   2.010000E+00   2.010000E+00   2.010000E+00   2.010000E+00   2.010000E+00   2.010000E+00   2.010000E+00   2.010000E+00   2.010000E+00   2.010000E+00   2.010000E+00   2.010000E+00   2.010000E+00   2.010000E+00   2.010000E+00   2.010000E+00   2.010000E+00   2.010000E+00   2.010000E+00   2.010000E+00   2.010000E+00   2.010000E+00   2.010000E+00   2.010000E+00   2.010000E+00   2.010000E+00   2.010000E+00   2.010000E+00   2.010000E+00   2.010000E+00   2.010000E+00   2.010000E+00   2.010000E+00   2.010000E+00   2.010000E+00   2.010000E+00   2.010000E+00   2.010000E+00   2.010000E+00   2.010000E+00   2.010000E+00   2.010000E+00   2.010000E+00   2.010000E+00   2.010000E+00   2.010000E+00   2.010000E+00   2.010000E+00   2.010000E+00   2.010000E+00   2.010000E+00   2.010000E+00   2.010000E+00   2.010000E+00   2.010000E+00   2.010000E+00   2.010000E+00   2.010000E+00   2.010000E+00   2.010000E+00   2.010000E+00   2.010000E+00   2.010000E+00   2.010000E+00   2.010000E+00   2.010000E+00   2.010000E+00   2.010000E+00   2.010000E+00   2.010000E+00   2.010000E+00   2.010000E+00   2.010000E+00   2.010000E+00   2.010000E+00   2.010000E+00   2.010000E+00   2.010000E+00   2.010000E+00   2.010000E+00   2.010000E+00   2.010000E+00   2.010000E+00   2.010000E+00   2.010000E+00   2.010000E+00   2.010000E+00   2.010000E+00   2.010000E+00   2.010000E+00   2.010000E+00   2.010000E+00   2.010000E+00   2.010000E+00   2.010000E+00   2.010000E+00   2.010000E+00   2.010000E+00   2.010000E+00   2.010000E+00   2.010000E+00   2.010000E+00   2.010000E+00   2.010000E+00   2.010000E+00   2.010000E+00   2.010000E+00   2.010000E+00   2.010000E+00   2.010000E+00   2.010000E+00   2.010000E+00   2.010000E+00   2.010000E+00   2.010000E+00   2.010000E+00   2.010000E+00   2.010000E+00   2.010000E+00   2.010000E+00   2.010000E+00   2.010000E+00   2.010000E+00   2.010000E+00   2.010000E+00   2.010000E+00   2.010000E+00   2.010000E+00   2.010000E+00   2.010000E+00   2.010000E+00   2.010000E+00   2.010000E+00   2.010000E+00   2.010000E+00   2.010000E+00   2.010000E+00   2.010000E+00   2.010000E+00   2.010000E+00   2.010000E+00   2.010000E+00   2.010000E+00   2.010000E+00   2.010000E+00   2.010000E+00   2.010000E+00   2.010000E+00   2.010000E+00   2.010000E+00   2.010000E+00   2.010000E+00   2.010000E+00   2.010000E+00   2.010000E+00   2.010000E+00   2.010000E+00   2.010000E+00   2.010000E+00   2.010000E+00   2.010000E+00   2.010000E+00   2.010000E+00   2.010000E+00