# PCG package for MODFLOW-2005 generated by Flopy 3.3.6
50 100 1 0
0.01 0.01 1.0 0 0 3 0.5 
