# STR package for MODFLOW-2005 generated by Flopy 3.3.6
282 1 0 0 0 86400.0 53 53 
       282         1         1  # stress period 1
1 111 284 1 0 10000.0 392.0 50.79999923706055 388.79998779296875 391.79998779296875 
1 110 284 1 1 10000.0 391.0 50.79999923706055 387.79998779296875 390.79998779296875 
1 109 284 1 2 10000.0 391.0 50.79999923706055 387.79998779296875 390.79998779296875 
1 108 284 1 3 10000.0 391.0 50.79999923706055 387.79998779296875 390.79998779296875 
1 107 285 1 4 10000.0 391.0 50.79999923706055 387.79998779296875 390.79998779296875 
1 106 285 1 5 10000.0 391.0 50.79999923706055 387.79998779296875 390.79998779296875 
1 105 286 1 6 10000.0 391.0 50.79999923706055 387.79998779296875 390.79998779296875 
1 104 286 1 7 10000.0 391.0 50.79999923706055 387.79998779296875 390.79998779296875 
1 103 286 1 8 10000.0 391.0 50.79999923706055 387.79998779296875 390.79998779296875 
1 102 287 1 9 10000.0 391.0 50.79999923706055 387.79998779296875 390.79998779296875 
1 101 287 1 10 10000.0 390.0 50.79999923706055 386.79998779296875 389.79998779296875 
1 100 287 1 11 10000.0 390.0 50.79999923706055 386.79998779296875 389.79998779296875 
1 99 287 1 12 10000.0 390.0 50.79999923706055 386.79998779296875 389.79998779296875 
1 98 287 1 13 10000.0 390.0 50.79999923706055 386.79998779296875 389.79998779296875 
1 97 287 1 14 10000.0 390.0 50.79999923706055 386.79998779296875 389.79998779296875 
1 96 288 1 15 10000.0 390.0 50.79999923706055 386.79998779296875 389.79998779296875 
1 95 288 1 16 10000.0 390.0 50.79999923706055 386.79998779296875 389.79998779296875 
1 94 288 1 17 10000.0 390.0 50.79999923706055 386.79998779296875 389.79998779296875 
1 93 288 1 18 10000.0 390.0 50.79999923706055 386.79998779296875 389.79998779296875 
1 92 288 1 19 10000.0 389.0 50.79999923706055 385.79998779296875 388.79998779296875 
1 91 288 1 20 10000.0 389.0 50.79999923706055 385.79998779296875 388.79998779296875 
1 90 288 1 21 10000.0 389.0 50.79999923706055 385.79998779296875 388.79998779296875 
1 89 288 1 22 10000.0 390.0 50.79999923706055 386.79998779296875 389.79998779296875 
1 88 287 1 23 10000.0 389.0 50.79999923706055 385.79998779296875 388.79998779296875 
1 87 287 1 24 10000.0 389.0 50.79999923706055 385.79998779296875 388.79998779296875 
1 86 287 1 25 10000.0 389.0 50.79999923706055 385.79998779296875 388.79998779296875 
1 85 286 1 26 10000.0 388.0 50.79999923706055 384.79998779296875 387.79998779296875 
1 84 286 1 27 10000.0 388.0 50.79999923706055 384.79998779296875 387.79998779296875 
1 84 285 1 28 10000.0 388.0 50.79999923706055 384.79998779296875 387.79998779296875 
1 83 284 1 29 10000.0 388.0 50.79999923706055 384.79998779296875 387.79998779296875 
1 83 283 1 30 10000.0 388.0 50.79999923706055 384.79998779296875 387.79998779296875 
1 82 282 1 31 10000.0 388.0 50.79999923706055 384.79998779296875 387.79998779296875 
1 82 281 1 32 10000.0 388.0 50.79999923706055 384.79998779296875 387.79998779296875 
1 81 280 1 33 10000.0 388.0 50.79999923706055 384.79998779296875 387.79998779296875 
1 81 279 1 34 10000.0 388.0 50.79999923706055 384.79998779296875 387.79998779296875 
1 80 278 1 35 10000.0 388.0 50.79999923706055 384.79998779296875 387.79998779296875 
1 80 277 1 36 10000.0 388.0 50.79999923706055 384.79998779296875 387.79998779296875 
1 79 276 1 37 10000.0 388.0 50.79999923706055 384.79998779296875 387.79998779296875 
1 79 275 1 38 10000.0 388.0 50.79999923706055 384.79998779296875 387.79998779296875 
1 78 274 1 39 10000.0 388.0 50.79999923706055 384.79998779296875 387.79998779296875 
1 78 273 1 40 10000.0 388.0 50.79999923706055 384.79998779296875 387.79998779296875 
1 77 272 1 41 10000.0 388.0 50.79999923706055 384.79998779296875 387.79998779296875 
1 76 271 1 42 10000.0 388.0 50.79999923706055 384.79998779296875 387.79998779296875 
1 75 270 1 43 10000.0 387.0 50.79999923706055 383.79998779296875 386.79998779296875 
1 75 269 1 44 10000.0 387.0 50.79999923706055 383.79998779296875 386.79998779296875 
1 74 268 1 45 10000.0 387.0 50.79999923706055 383.79998779296875 386.79998779296875 
1 74 267 1 46 10000.0 387.0 50.79999923706055 383.79998779296875 386.79998779296875 
1 73 266 1 47 10000.0 387.0 50.79999923706055 383.79998779296875 386.79998779296875 
1 72 265 1 48 10000.0 387.0 50.79999923706055 383.79998779296875 386.79998779296875 
1 71 264 1 49 10000.0 387.0 50.79999923706055 383.79998779296875 386.79998779296875 
1 71 263 1 50 10000.0 387.0 50.79999923706055 383.79998779296875 386.79998779296875 
1 70 262 1 51 10000.0 387.0 50.79999923706055 383.79998779296875 386.79998779296875 
1 70 261 1 52 10000.0 387.0 50.79999923706055 383.79998779296875 386.79998779296875 
1 69 260 1 53 10000.0 387.0 50.79999923706055 383.79998779296875 386.79998779296875 
1 68 260 1 54 10000.0 387.0 50.79999923706055 383.79998779296875 386.79998779296875 
1 67 259 1 55 10000.0 387.0 50.79999923706055 383.79998779296875 386.79998779296875 
1 67 258 1 56 10000.0 387.0 50.79999923706055 383.79998779296875 386.79998779296875 
1 66 257 1 57 10000.0 387.0 50.79999923706055 383.79998779296875 386.79998779296875 
1 65 256 1 58 10000.0 387.0 50.79999923706055 383.79998779296875 386.79998779296875 
1 65 255 1 59 10000.0 387.0 50.79999923706055 383.79998779296875 386.79998779296875 
1 65 254 1 60 10000.0 387.0 50.79999923706055 383.79998779296875 386.79998779296875 
1 64 253 1 61 10000.0 387.0 50.79999923706055 383.79998779296875 386.79998779296875 
1 63 252 1 62 10000.0 387.0 50.79999923706055 383.79998779296875 386.79998779296875 
1 62 251 1 63 10000.0 386.0 50.79999923706055 382.79998779296875 385.79998779296875 
1 61 250 1 64 10000.0 386.0 50.79999923706055 382.79998779296875 385.79998779296875 
1 60 249 1 65 10000.0 386.0 50.79999923706055 382.79998779296875 385.79998779296875 
1 59 248 1 66 10000.0 386.0 50.79999923706055 382.79998779296875 385.79998779296875 
1 58 247 1 67 10000.0 386.0 50.79999923706055 382.79998779296875 385.79998779296875 
1 57 246 1 68 10000.0 386.0 50.79999923706055 382.79998779296875 385.79998779296875 
1 56 245 1 69 10000.0 386.0 50.79999923706055 382.79998779296875 385.79998779296875 
1 56 244 1 70 10000.0 386.0 50.79999923706055 382.79998779296875 385.79998779296875 
1 55 243 1 71 10000.0 386.0 50.79999923706055 382.79998779296875 385.79998779296875 
1 54 242 1 72 10000.0 386.0 50.79999923706055 382.79998779296875 385.79998779296875 
1 53 241 1 73 10000.0 386.0 50.79999923706055 382.79998779296875 385.79998779296875 
1 52 240 1 74 10000.0 385.0 50.79999923706055 381.79998779296875 384.79998779296875 
1 51 239 1 75 10000.0 385.0 50.79999923706055 381.79998779296875 384.79998779296875 
1 50 238 1 76 10000.0 385.0 50.79999923706055 381.79998779296875 384.79998779296875 
1 50 237 1 77 10000.0 385.0 50.79999923706055 381.79998779296875 384.79998779296875 
1 49 236 1 78 10000.0 385.0 50.79999923706055 381.79998779296875 384.79998779296875 
1 49 235 1 79 10000.0 385.0 50.79999923706055 381.79998779296875 384.79998779296875 
1 48 234 1 80 10000.0 385.0 50.79999923706055 381.79998779296875 384.79998779296875 
1 47 233 1 81 10000.0 385.0 50.79999923706055 381.79998779296875 384.79998779296875 
1 47 232 1 82 10000.0 385.0 50.79999923706055 381.79998779296875 384.79998779296875 
1 47 231 1 83 10000.0 385.0 50.79999923706055 381.79998779296875 384.79998779296875 
1 46 230 1 84 10000.0 385.0 50.79999923706055 381.79998779296875 384.79998779296875 
1 46 229 1 85 10000.0 385.0 50.79999923706055 381.79998779296875 384.79998779296875 
1 46 228 1 86 10000.0 385.0 50.79999923706055 381.79998779296875 384.79998779296875 
1 46 227 1 87 10000.0 385.0 50.79999923706055 381.79998779296875 384.79998779296875 
1 45 226 1 88 10000.0 385.0 50.79999923706055 381.79998779296875 384.79998779296875 
1 44 225 1 89 10000.0 384.0 50.79999923706055 380.79998779296875 383.79998779296875 
1 43 224 1 90 10000.0 384.0 50.79999923706055 380.79998779296875 383.79998779296875 
1 42 223 1 91 10000.0 384.0 50.79999923706055 380.79998779296875 383.79998779296875 
1 42 222 1 92 10000.0 384.0 50.79999923706055 380.79998779296875 383.79998779296875 
1 41 221 1 93 10000.0 384.0 50.79999923706055 380.79998779296875 383.79998779296875 
1 40 220 1 94 10000.0 375.0 50.79999923706055 371.79998779296875 374.79998779296875 
1 39 219 1 95 10000.0 375.0 50.79999923706055 371.79998779296875 374.79998779296875 
1 38 218 1 96 10000.0 384.0 50.79999923706055 380.79998779296875 383.79998779296875 
1 37 217 1 97 10000.0 375.0 50.79999923706055 371.79998779296875 374.79998779296875 
1 36 216 1 98 10000.0 375.0 50.79999923706055 371.79998779296875 374.79998779296875 
1 35 215 1 99 10000.0 375.0 50.79999923706055 371.79998779296875 374.79998779296875 
1 34 214 1 100 10000.0 375.0 50.79999923706055 371.79998779296875 374.79998779296875 
1 33 213 1 101 10000.0 374.0 50.79999923706055 370.79998779296875 373.79998779296875 
1 32 212 1 102 10000.0 374.0 50.79999923706055 370.79998779296875 373.79998779296875 
1 32 211 1 103 10000.0 375.0 50.79999923706055 371.79998779296875 374.79998779296875 
1 32 210 1 104 10000.0 384.0 50.79999923706055 380.79998779296875 383.79998779296875 
1 32 209 1 105 10000.0 376.0 50.79999923706055 372.79998779296875 375.79998779296875 
1 31 208 1 106 10000.0 375.0 50.79999923706055 371.79998779296875 374.79998779296875 
1 31 207 1 107 10000.0 375.0 50.79999923706055 371.79998779296875 374.79998779296875 
1 32 206 1 108 10000.0 375.0 50.79999923706055 371.79998779296875 374.79998779296875 
1 32 205 1 109 10000.0 374.0 50.79999923706055 370.79998779296875 373.79998779296875 
1 33 204 1 110 10000.0 374.0 50.79999923706055 370.79998779296875 373.79998779296875 
1 34 203 1 111 10000.0 384.0 50.79999923706055 380.79998779296875 383.79998779296875 
1 33 202 1 112 10000.0 376.0 50.79999923706055 372.79998779296875 375.79998779296875 
1 32 201 1 113 10000.0 375.0 50.79999923706055 371.79998779296875 374.79998779296875 
1 32 200 1 114 10000.0 375.0 50.79999923706055 371.79998779296875 374.79998779296875 
1 31 199 1 115 10000.0 375.0 50.79999923706055 371.79998779296875 374.79998779296875 
1 31 198 1 116 10000.0 374.0 50.79999923706055 370.79998779296875 373.79998779296875 
1 30 197 1 117 10000.0 385.0 50.79999923706055 381.79998779296875 384.79998779296875 
1 29 196 1 118 10000.0 376.0 50.79999923706055 372.79998779296875 375.79998779296875 
1 29 195 1 119 10000.0 376.0 50.79999923706055 372.79998779296875 375.79998779296875 
1 29 194 1 120 10000.0 375.0 50.79999923706055 371.79998779296875 374.79998779296875 
1 28 193 1 121 10000.0 375.0 50.79999923706055 371.79998779296875 374.79998779296875 
1 28 192 1 122 10000.0 374.0 50.79999923706055 370.79998779296875 373.79998779296875 
1 27 191 1 123 10000.0 374.0 50.79999923706055 370.79998779296875 373.79998779296875 
1 26 191 1 124 10000.0 385.0 50.79999923706055 381.79998779296875 384.79998779296875 
1 25 190 1 125 10000.0 376.0 50.79999923706055 372.79998779296875 375.79998779296875 
1 26 189 1 126 10000.0 376.0 50.79999923706055 372.79998779296875 375.79998779296875 
1 25 188 1 127 10000.0 376.0 50.79999923706055 372.79998779296875 375.79998779296875 
1 25 187 1 128 10000.0 375.0 50.79999923706055 371.79998779296875 374.79998779296875 
1 24 186 1 129 10000.0 374.0 50.79999923706055 370.79998779296875 373.79998779296875 
1 24 185 1 130 10000.0 374.0 50.79999923706055 370.79998779296875 373.79998779296875 
1 23 184 1 131 10000.0 385.0 50.79999923706055 381.79998779296875 384.79998779296875 
1 23 183 1 132 10000.0 377.0 50.79999923706055 373.79998779296875 376.79998779296875 
1 23 182 1 133 10000.0 376.0 50.79999923706055 372.79998779296875 375.79998779296875 
1 22 181 1 134 10000.0 376.0 50.79999923706055 372.79998779296875 375.79998779296875 
1 22 180 1 135 10000.0 376.0 50.79999923706055 372.79998779296875 375.79998779296875 
1 21 179 1 136 10000.0 376.0 50.79999923706055 372.79998779296875 375.79998779296875 
1 21 178 1 137 10000.0 374.0 50.79999923706055 370.79998779296875 373.79998779296875 
1 21 177 1 138 10000.0 385.0 50.79999923706055 381.79998779296875 384.79998779296875 
1 20 176 1 139 10000.0 383.0 50.79999923706055 379.79998779296875 382.79998779296875 
1 20 175 1 140 10000.0 377.0 50.79999923706055 373.79998779296875 376.79998779296875 
1 20 174 1 141 10000.0 377.0 50.79999923706055 373.79998779296875 376.79998779296875 
1 20 173 1 142 10000.0 376.0 50.79999923706055 372.79998779296875 375.79998779296875 
1 20 172 1 143 10000.0 376.0 50.79999923706055 372.79998779296875 375.79998779296875 
1 21 171 1 144 10000.0 375.0 50.79999923706055 371.79998779296875 374.79998779296875 
1 20 170 1 145 10000.0 374.0 50.79999923706055 370.79998779296875 373.79998779296875 
1 19 169 1 146 10000.0 385.0 50.79999923706055 381.79998779296875 384.79998779296875 
1 19 168 1 147 10000.0 383.0 50.79999923706055 379.79998779296875 382.79998779296875 
1 19 167 1 148 10000.0 383.0 50.79999923706055 379.79998779296875 382.79998779296875 
1 19 166 1 149 10000.0 378.0 50.79999923706055 374.79998779296875 377.79998779296875 
1 20 165 1 150 10000.0 377.0 50.79999923706055 373.79998779296875 376.79998779296875 
1 21 165 1 151 10000.0 377.0 50.79999923706055 373.79998779296875 376.79998779296875 
1 21 164 1 152 10000.0 377.0 50.79999923706055 373.79998779296875 376.79998779296875 
1 22 163 1 153 10000.0 374.0 50.79999923706055 370.79998779296875 373.79998779296875 
1 22 162 1 154 10000.0 385.0 50.79999923706055 381.79998779296875 384.79998779296875 
1 22 161 1 155 10000.0 385.0 50.79999923706055 381.79998779296875 384.79998779296875 
1 23 160 1 156 10000.0 384.0 50.79999923706055 380.79998779296875 383.79998779296875 
1 23 159 1 157 10000.0 384.0 50.79999923706055 380.79998779296875 383.79998779296875 
1 23 158 1 158 10000.0 383.0 50.79999923706055 379.79998779296875 382.79998779296875 
1 23 157 1 159 10000.0 383.0 50.79999923706055 379.79998779296875 382.79998779296875 
1 23 156 1 160 10000.0 383.0 50.79999923706055 379.79998779296875 382.79998779296875 
1 23 155 1 161 10000.0 383.0 50.79999923706055 379.79998779296875 382.79998779296875 
1 23 154 1 162 10000.0 378.0 50.79999923706055 374.79998779296875 377.79998779296875 
1 24 153 1 163 10000.0 377.0 50.79999923706055 373.79998779296875 376.79998779296875 
1 25 152 1 164 10000.0 377.0 50.79999923706055 373.79998779296875 376.79998779296875 
1 26 151 1 165 10000.0 374.0 50.79999923706055 370.79998779296875 373.79998779296875 
1 27 150 1 166 10000.0 384.0 50.79999923706055 380.79998779296875 383.79998779296875 
1 28 149 1 167 10000.0 384.0 50.79999923706055 380.79998779296875 383.79998779296875 
1 28 148 1 168 10000.0 383.0 50.79999923706055 379.79998779296875 382.79998779296875 
1 28 147 1 169 10000.0 383.0 50.79999923706055 379.79998779296875 382.79998779296875 
1 28 146 1 170 10000.0 380.0 50.79999923706055 376.79998779296875 379.79998779296875 
1 29 145 1 171 10000.0 379.0 50.79999923706055 375.79998779296875 378.79998779296875 
1 29 144 1 172 10000.0 379.0 50.79999923706055 375.79998779296875 378.79998779296875 
1 29 143 1 173 10000.0 378.0 50.79999923706055 374.79998779296875 377.79998779296875 
1 29 142 1 174 10000.0 378.0 50.79999923706055 374.79998779296875 377.79998779296875 
1 29 141 1 175 10000.0 378.0 50.79999923706055 374.79998779296875 377.79998779296875 
1 29 140 1 176 10000.0 374.0 50.79999923706055 370.79998779296875 373.79998779296875 
1 28 139 1 177 10000.0 383.0 50.79999923706055 379.79998779296875 382.79998779296875 
1 28 138 1 178 10000.0 379.0 50.79999923706055 375.79998779296875 378.79998779296875 
1 28 137 1 179 10000.0 379.0 50.79999923706055 375.79998779296875 378.79998779296875 
1 29 136 1 180 10000.0 378.0 50.79999923706055 374.79998779296875 377.79998779296875 
1 30 135 1 181 10000.0 378.0 50.79999923706055 374.79998779296875 377.79998779296875 
1 31 134 1 182 10000.0 378.0 50.79999923706055 374.79998779296875 377.79998779296875 
1 31 133 1 183 10000.0 378.0 50.79999923706055 374.79998779296875 377.79998779296875 
1 31 132 1 184 10000.0 378.0 50.79999923706055 374.79998779296875 377.79998779296875 
1 30 131 1 185 10000.0 378.0 50.79999923706055 374.79998779296875 377.79998779296875 
1 30 130 1 186 10000.0 378.0 50.79999923706055 374.79998779296875 377.79998779296875 
1 30 129 1 187 10000.0 374.0 50.79999923706055 370.79998779296875 373.79998779296875 
1 30 128 1 188 10000.0 383.0 50.79999923706055 379.79998779296875 382.79998779296875 
1 30 127 1 189 10000.0 383.0 50.79999923706055 379.79998779296875 382.79998779296875 
1 30 126 1 190 10000.0 383.0 50.79999923706055 379.79998779296875 382.79998779296875 
1 30 125 1 191 10000.0 381.0 50.79999923706055 377.79998779296875 380.79998779296875 
1 30 124 1 192 10000.0 380.0 50.79999923706055 376.79998779296875 379.79998779296875 
1 31 123 1 193 10000.0 380.0 50.79999923706055 376.79998779296875 379.79998779296875 
1 31 122 1 194 10000.0 380.0 50.79999923706055 376.79998779296875 379.79998779296875 
1 31 121 1 195 10000.0 380.0 50.79999923706055 376.79998779296875 379.79998779296875 
1 32 120 1 196 10000.0 380.0 50.79999923706055 376.79998779296875 379.79998779296875 
1 32 119 1 197 10000.0 379.0 50.79999923706055 375.79998779296875 378.79998779296875 
1 32 118 1 198 10000.0 374.0 50.79999923706055 370.79998779296875 373.79998779296875 
1 33 117 1 199 10000.0 382.0 50.79999923706055 378.79998779296875 381.79998779296875 
1 33 116 1 200 10000.0 383.0 50.79999923706055 379.79998779296875 382.79998779296875 
1 33 115 1 201 10000.0 382.0 50.79999923706055 378.79998779296875 381.79998779296875 
1 33 114 1 202 10000.0 381.0 50.79999923706055 377.79998779296875 380.79998779296875 
1 34 113 1 203 10000.0 381.0 50.79999923706055 377.79998779296875 380.79998779296875 
1 34 112 1 204 10000.0 380.0 50.79999923706055 376.79998779296875 379.79998779296875 
1 35 111 1 205 10000.0 379.0 50.79999923706055 375.79998779296875 378.79998779296875 
1 34 110 1 206 10000.0 379.0 50.79999923706055 375.79998779296875 378.79998779296875 
1 34 109 1 207 10000.0 379.0 50.79999923706055 375.79998779296875 378.79998779296875 
1 35 109 1 208 10000.0 374.0 50.79999923706055 370.79998779296875 373.79998779296875 
1 36 109 1 209 10000.0 382.0 50.79999923706055 378.79998779296875 381.79998779296875 
1 37 109 1 210 10000.0 381.0 50.79999923706055 377.79998779296875 380.79998779296875 
1 37 108 1 211 10000.0 373.0 50.79999923706055 369.79998779296875 372.79998779296875 
1 36 107 1 212 10000.0 382.0 50.79999923706055 378.79998779296875 381.79998779296875 
1 36 106 1 213 10000.0 382.0 50.79999923706055 378.79998779296875 381.79998779296875 
1 35 105 1 214 10000.0 381.0 50.79999923706055 377.79998779296875 380.79998779296875 
1 34 104 1 215 10000.0 374.0 50.79999923706055 370.79998779296875 373.79998779296875 
1 35 103 1 216 10000.0 374.0 50.79999923706055 370.79998779296875 373.79998779296875 
1 35 102 1 217 10000.0 382.0 50.79999923706055 378.79998779296875 381.79998779296875 
1 36 101 1 218 10000.0 382.0 50.79999923706055 378.79998779296875 381.79998779296875 
1 37 101 1 219 10000.0 382.0 50.79999923706055 378.79998779296875 381.79998779296875 
1 38 101 1 220 10000.0 381.0 50.79999923706055 377.79998779296875 380.79998779296875 
1 39 100 1 221 10000.0 373.0 50.79999923706055 369.79998779296875 372.79998779296875 
1 38 99 1 222 10000.0 373.0 50.79999923706055 369.79998779296875 372.79998779296875 
1 38 98 1 223 10000.0 382.0 50.79999923706055 378.79998779296875 381.79998779296875 
1 37 97 1 224 10000.0 382.0 50.79999923706055 378.79998779296875 381.79998779296875 
1 38 96 1 225 10000.0 380.0 50.79999923706055 376.79998779296875 379.79998779296875 
1 39 95 1 226 10000.0 373.0 50.79999923706055 369.79998779296875 372.79998779296875 
1 40 94 1 227 10000.0 382.0 50.79999923706055 378.79998779296875 381.79998779296875 
1 39 93 1 228 10000.0 382.0 50.79999923706055 378.79998779296875 381.79998779296875 
1 39 92 1 229 10000.0 382.0 50.79999923706055 378.79998779296875 381.79998779296875 
1 40 91 1 230 10000.0 381.0 50.79999923706055 377.79998779296875 380.79998779296875 
1 39 90 1 231 10000.0 381.0 50.79999923706055 377.79998779296875 380.79998779296875 
1 40 89 1 232 10000.0 381.0 50.79999923706055 377.79998779296875 380.79998779296875 
1 40 88 1 233 10000.0 380.0 50.79999923706055 376.79998779296875 379.79998779296875 
1 40 87 1 234 10000.0 380.0 50.79999923706055 376.79998779296875 379.79998779296875 
1 41 86 1 235 10000.0 380.0 50.79999923706055 376.79998779296875 379.79998779296875 
1 41 85 1 236 10000.0 380.0 50.79999923706055 376.79998779296875 379.79998779296875 
1 40 84 1 237 10000.0 373.0 50.79999923706055 369.79998779296875 372.79998779296875 
1 40 83 1 238 10000.0 382.0 50.79999923706055 378.79998779296875 381.79998779296875 
1 39 82 1 239 10000.0 382.0 50.79999923706055 378.79998779296875 381.79998779296875 
1 38 82 1 240 10000.0 381.0 50.79999923706055 377.79998779296875 380.79998779296875 
1 37 81 1 241 10000.0 381.0 50.79999923706055 377.79998779296875 380.79998779296875 
1 37 80 1 242 10000.0 381.0 50.79999923706055 377.79998779296875 380.79998779296875 
1 36 79 1 243 10000.0 374.0 50.79999923706055 370.79998779296875 373.79998779296875 
1 36 78 1 244 10000.0 382.0 50.79999923706055 378.79998779296875 381.79998779296875 
1 35 77 1 245 10000.0 381.0 50.79999923706055 377.79998779296875 380.79998779296875 
1 34 77 1 246 10000.0 381.0 50.79999923706055 377.79998779296875 380.79998779296875 
1 33 76 1 247 10000.0 381.0 50.79999923706055 377.79998779296875 380.79998779296875 
1 32 75 1 248 10000.0 381.0 50.79999923706055 377.79998779296875 380.79998779296875 
1 31 75 1 249 10000.0 381.0 50.79999923706055 377.79998779296875 380.79998779296875 
1 30 75 1 250 10000.0 374.0 50.79999923706055 370.79998779296875 373.79998779296875 
1 29 74 1 251 10000.0 381.0 50.79999923706055 377.79998779296875 380.79998779296875 
1 28 73 1 252 10000.0 381.0 50.79999923706055 377.79998779296875 380.79998779296875 
1 27 72 1 253 10000.0 381.0 50.79999923706055 377.79998779296875 380.79998779296875 
1 26 71 1 254 10000.0 381.0 50.79999923706055 377.79998779296875 380.79998779296875 
1 26 70 1 255 10000.0 381.0 50.79999923706055 377.79998779296875 380.79998779296875 
1 25 69 1 256 10000.0 381.0 50.79999923706055 377.79998779296875 380.79998779296875 
1 25 68 1 257 10000.0 381.0 50.79999923706055 377.79998779296875 380.79998779296875 
1 24 67 1 258 10000.0 373.0 50.79999923706055 369.79998779296875 372.79998779296875 
1 23 66 1 259 10000.0 381.0 50.79999923706055 377.79998779296875 380.79998779296875 
1 22 65 1 260 10000.0 381.0 50.79999923706055 377.79998779296875 380.79998779296875 
1 21 65 1 261 10000.0 381.0 50.79999923706055 377.79998779296875 380.79998779296875 
1 20 64 1 262 10000.0 381.0 50.79999923706055 377.79998779296875 380.79998779296875 
1 19 64 1 263 10000.0 374.0 50.79999923706055 370.79998779296875 373.79998779296875 
1 18 63 1 264 10000.0 373.0 50.79999923706055 369.79998779296875 372.79998779296875 
1 17 62 1 265 10000.0 373.0 50.79999923706055 369.79998779296875 372.79998779296875 
1 16 61 1 266 10000.0 373.0 50.79999923706055 369.79998779296875 372.79998779296875 
1 15 60 1 267 10000.0 372.0 50.79999923706055 368.79998779296875 371.79998779296875 
1 14 59 1 268 10000.0 372.0 50.79999923706055 368.79998779296875 371.79998779296875 
1 13 59 1 269 10000.0 372.0 50.79999923706055 368.79998779296875 371.79998779296875 
1 12 58 1 270 10000.0 372.0 50.79999923706055 368.79998779296875 371.79998779296875 
1 11 57 1 271 10000.0 372.0 50.79999923706055 368.79998779296875 371.79998779296875 
1 10 57 1 272 10000.0 372.0 50.79999923706055 368.79998779296875 371.79998779296875 
1 9 57 1 273 10000.0 372.0 50.79999923706055 368.79998779296875 371.79998779296875 
1 8 56 1 274 10000.0 373.0 50.79999923706055 369.79998779296875 372.79998779296875 
1 7 56 1 275 10000.0 372.0 50.79999923706055 368.79998779296875 371.79998779296875 
1 6 56 1 276 10000.0 372.0 50.79999923706055 368.79998779296875 371.79998779296875 
1 5 56 1 277 10000.0 372.0 50.79999923706055 368.79998779296875 371.79998779296875 
1 4 55 1 278 10000.0 371.0 50.79999923706055 367.79998779296875 370.79998779296875 
1 3 55 1 279 10000.0 372.0 50.79999923706055 368.79998779296875 371.79998779296875 
1 2 54 1 280 10000.0 373.0 50.79999923706055 369.79998779296875 372.79998779296875 
1 1 54 1 281 10000.0 373.0 50.79999923706055 369.79998779296875 372.79998779296875 
