# RCH package for MODFLOW-2005 generated by Flopy 3.3.6
         3         0
         1        -1 # Stress period 1
INTERNAL               1 (364E15.6) -1 #rech_1                        
   7.100000E-03   7.100000E-03   7.100000E-03   7.100000E-03   7.100000E-03   7.100000E-03   7.100000E-03   7.100000E-03   7.100000E-03   7.100000E-03   7.100000E-03   7.100000E-03   7.100000E-03   7.100000E-03   7.100000E-03   7.100000E-03   7.100000E-03   7.100000E-03   7.100000E-03   7.100000E-03   7.100000E-03   7.100000E-03   7.100000E-03   7.100000E-03   7.100000E-03   7.100000E-03   7.100000E-03   7.100000E-03   7.100000E-03   7.100000E-03   7.100000E-03   7.100000E-03   7.100000E-03   7.100000E-03   7.100000E-03   7.100000E-03   7.100000E-03   7.100000E-03   7.100000E-03   7.100000E-03   7.100000E-03   7.100000E-03   7.100000E-03   7.100000E-03   7.100000E-03   7.100000E-03   7.100000E-03   7.100000E-03   7.100000E-03   7.100000E-03   7.100000E-03   7.100000E-03   7.100000E-03   7.100000E-03   7.100000E-03   7.100000E-03   7.100000E-03   7.100000E-03   7.100000E-03   7.100000E-03   7.100000E-03   7.100000E-03   7.100000E-03   7.100000E-03   7.100000E-03   7.100000E-03   7.100000E-03   7.100000E-03   7.100000E-03   7.100000E-03   7.100000E-03   7.100000E-03   7.100000E-03   7.100000E-03   7.100000E-03   7.100000E-03   7.100000E-03   7.100000E-03   7.100000E-03   7.100000E-03   7.100000E-03   7.100000E-03   7.100000E-03   7.100000E-03   7.100000E-03   7.100000E-03   7.100000E-03   7.100000E-03   7.100000E-03   7.100000E-03   7.100000E-03   7.100000E-03   7.100000E-03   7.100000E-03   7.100000E-03   7.100000E-03   7.100000E-03   7.100000E-03   7.100000E-03   7.100000E-03   7.100000E-03   7.100000E-03   7.100000E-03   7.100000E-03   7.100000E-03   7.100000E-03   7.100000E-03   7.100000E-03   7.100000E-03   7.100000E-03   7.100000E-03   7.100000E-03   7.100000E-03   7.100000E-03   7.100000E-03   7.100000E-03   7.100000E-03   7.100000E-03   7.100000E-03   7.100000E-03   7.100000E-03   7.100000E-03   7.100000E-03   7.100000E-03   7.100000E-03   7.100000E-03   7.100000E-03   7.100000E-03   7.100000E-03   7.100000E-03   7.100000E-03   7.100000E-03   7.100000E-03   7.100000E-03   7.100000E-03   7.100000E-03   7.100000E-03   7.100000E-03   7.100000E-03   7.100000E-03   7.100000E-03   7.100000E-03   7.100000E-03   7.100000E-03   7.100000E-03   7.100000E-03   7.100000E-03   7.100000E-03   7.100000E-03   7.100000E-03   7.100000E-03   7.100000E-03   7.100000E-03   7.100000E-03   7.100000E-03   7.100000E-03   7.100000E-03   7.100000E-03   7.100000E-03   7.100000E-03   7.100000E-03   7.100000E-03   7.100000E-03   7.100000E-03   7.100000E-03   7.100000E-03   7.100000E-03   7.100000E-03   7.100000E-03   7.100000E-03   7.100000E-03   7.100000E-03   7.100000E-03   7.100000E-03   7.100000E-03   7.100000E-03   7.100000E-03   7.100000E-03   7.100000E-03   7.100000E-03   7.100000E-03   7.100000E-03   7.100000E-03   7.100000E-03   7.100000E-03   7.100000E-03   7.100000E-03   7.100000E-03   7.100000E-03   7.100000E-03   7.100000E-03   7.100000E-03   7.100000E-03   7.100000E-03   7.100000E-03   7.100000E-03   7.100000E-03   7.100000E-03   7.100000E-03   7.100000E-03   7.100000E-03   7.100000E-03   7.100000E-03   7.100000E-03   7.100000E-03   7.100000E-03   7.100000E-03   7.100000E-03   7.100000E-03   7.100000E-03   7.100000E-03   7.100000E-03   7.100000E-03   7.100000E-03   7.100000E-03   7.100000E-03   7.100000E-03   7.100000E-03   7.100000E-03   7.100000E-03   7.100000E-03   7.100000E-03   7.100000E-03   7.100000E-03   7.100000E-03   7.100000E-03   7.100000E-03   7.100000E-03   7.100000E-03   7.100000E-03   7.100000E-03   7.100000E-03   7.100000E-03   7.100000E-03   7.100000E-03   7.100000E-03   7.100000E-03   7.100000E-03   7.100000E-03   7.100000E-03   7.100000E-03   7.100000E-03   7.100000E-03   7.100000E-03   7.100000E-03   7.100000E-03   7.100000E-03   7.100000E-03   7.100000E-03   7.100000E-03   7.100000E-03   7.100000E-03   7.100000E-03   7.100000E-03   7.100000E-03   7.100000E-03   7.100000E-03   7.100000E-03   7.100000E-03   7.100000E-03   7.100000E-03   7.100000E-03   7.100000E-03   7.100000E-03   7.100000E-03   7.100000E-03   7.100000E-03   7.100000E-03   7.100000E-03   7.100000E-03   7.100000E-03   7.100000E-03   7.100000E-03   7.100000E-03   7.100000E-03   7.100000E-03   7.100000E-03   7.100000E-03   7.100000E-03   7.100000E-03   7.100000E-03   7.100000E-03   7.100000E-03   7.100000E-03   7.100000E-03   7.100000E-03   7.100000E-03   7.100000E-03   7.100000E-03   7.100000E-03   7.100000E-03   7.100000E-03   7.100000E-03   7.100000E-03   7.100000E-03   7.100000E-03   7.100000E-03   7.100000E-03   7.100000E-03   7.100000E-03   7.100000E-03   7.100000E-03   7.100000E-03   7.100000E-03   7.100000E-03   7.100000E-03   7.100000E-03   7.100000E-03   7.100000E-03   7.100000E-03   7.100000E-03   7.100000E-03   7.100000E-03   7.100000E-03   7.100000E-03   7.100000E-03   7.100000E-03   7.100000E-03   7.100000E-03   7.100000E-03   7.100000E-03   7.100000E-03   7.100000E-03   7.100000E-03   7.100000E-03   7.100000E-03   7.100000E-03   7.100000E-03   7.100000E-03   7.100000E-03   7.100000E-03   7.100000E-03   7.100000E-03   7.100000E-03   7.100000E-03   7.100000E-03   7.100000E-03   7.100000E-03   7.100000E-03   7.100000E-03   7.100000E-03   7.100000E-03   7.100000E-03   7.100000E-03   7.100000E-03   7.100000E-03   7.100000E-03   7.100000E-03   7.100000E-03   7.100000E-03   7.100000E-03   7.100000E-03   7.100000E-03   7.100000E-03   7.100000E-03   7.100000E-03   7.100000E-03   7.100000E-03   7.100000E-03   7.100000E-03   7.100000E-03   7.100000E-03   7.100000E-03   7.100000E-03
   7.100000E-03   7.100000E-03   7.100000E-03   7.100000E-03   7.100000E-03   7.100000E-03   7.100000E-03   7.100000E-03   7.100000E-03   7.100000E-03   7.100000E-03   7.100000E-03   7.100000E-03   7.100000E-03   7.100000E-03   7.100000E-03   7.100000E-03   7.100000E-03   7.100000E-03   7.100000E-03   7.100000E-03   7.100000E-03   7.100000E-03   7.100000E-03   7.100000E-03   7.100000E-03   7.100000E-03   7.100000E-03   7.100000E-03   7.100000E-03   7.100000E-03   7.100000E-03   7.100000E-03   7.100000E-03   7.100000E-03   7.100000E-03   7.100000E-03   7.100000E-03   7.100000E-03   7.100000E-03   7.100000E-03   7.100000E-03   7.100000E-03   7.100000E-03   7.100000E-03   7.100000E-03   7.100000E-03   7.100000E-03   7.100000E-03   7.100000E-03   7.100000E-03   7.100000E-03   7.100000E-03   7.100000E-03   7.100000E-03   7.100000E-03   7.100000E-03   7.100000E-03   7.100000E-03   7.100000E-03   7.100000E-03   7.100000E-03   7.100000E-03   7.100000E-03   7.100000E-03   7.100000E-03   7.100000E-03   7.100000E-03   7.100000E-03   7.100000E-03   7.100000E-03   7.100000E-03   7.100000E-03   7.100000E-03   7.100000E-03   7.100000E-03   7.100000E-03   7.100000E-03   7.100000E-03   7.100000E-03   7.100000E-03   7.100000E-03   7.100000E-03   7.100000E-03   7.100000E-03   7.100000E-03   7.100000E-03   7.100000E-03   7.100000E-03   7.100000E-03   7.100000E-03   7.100000E-03   7.100000E-03   7.100000E-03   7.100000E-03   7.100000E-03   7.100000E-03   7.100000E-03   7.100000E-03   7.100000E-03   7.100000E-03   7.100000E-03   7.100000E-03   7.100000E-03   7.100000E-03   7.100000E-03   7.100000E-03   7.100000E-03   7.100000E-03   7.100000E-03   7.100000E-03   7.100000E-03   7.100000E-03   7.100000E-03   7.100000E-03   7.100000E-03   7.100000E-03   7.100000E-03   7.100000E-03   7.100000E-03   7.100000E-03   7.100000E-03   7.100000E-03   7.100000E-03   7.100000E-03   7.100000E-03   7.100000E-03   7.100000E-03   7.100000E-03   7.100000E-03   7.100000E-03   7.100000E-03   7.100000E-03   7.100000E-03   7.100000E-03   7.100000E-03   7.100000E-03   7.100000E-03   7.100000E-03   7.100000E-03   7.100000E-03   7.100000E-03   7.100000E-03   7.100000E-03   7.100000E-03   7.100000E-03   7.100000E-03   7.100000E-03   7.100000E-03   7.100000E-03   7.100000E-03   7.100000E-03   7.100000E-03   7.100000E-03   7.100000E-03   7.100000E-03   7.100000E-03   7.100000E-03   7.100000E-03   7.100000E-03   7.100000E-03   7.100000E-03   7.100000E-03   7.100000E-03   7.100000E-03   7.100000E-03   7.100000E-03   7.100000E-03   7.100000E-03   7.100000E-03   7.100000E-03   7.100000E-03   7.100000E-03   7.100000E-03   7.100000E-03   7.100000E-03   7.100000E-03   7.100000E-03   7.100000E-03   7.100000E-03   7.100000E-03   7.100000E-03   7.100000E-03   7.100000E-03   7.100000E-03   7.100000E-03   7.100000E-03   7.100000E-03   7.100000E-03   7.100000E-03   7.100000E-03   7.100000E-03   7.100000E-03   7.100000E-03   7.100000E-03   7.100000E-03   7.100000E-03   7.100000E-03   7.100000E-03   7.100000E-03   7.100000E-03   7.100000E-03   7.100000E-03   7.100000E-03   7.100000E-03   7.100000E-03   7.100000E-03   7.100000E-03   7.100000E-03   7.100000E-03   7.100000E-03   7.100000E-03   7.100000E-03   7.100000E-03   7.100000E-03   7.100000E-03   7.100000E-03   7.100000E-03   7.100000E-03   7.100000E-03   7.100000E-03   7.100000E-03   7.100000E-03   7.100000E-03   7.100000E-03   7.100000E-03   7.100000E-03   7.100000E-03   7.100000E-03   7.100000E-03   7.100000E-03   7.100000E-03   7.100000E-03   7.100000E-03   7.100000E-03   7.100000E-03   7.100000E-03   7.100000E-03   7.100000E-03   7.100000E-03   7.100000E-03   7.100000E-03   7.100000E-03   7.100000E-03   7.100000E-03   7.100000E-03   7.100000E-03   7.100000E-03   7.100000E-03   7.100000E-03   7.100000E-03   7.100000E-03   7.100000E-03   7.100000E-03   7.100000E-03   7.100000E-03   7.100000E-03   7.100000E-03   7.100000E-03   7.100000E-03   7.100000E-03   7.100000E-03   7.100000E-03   7.100000E-03   7.100000E-03   7.100000E-03   7.100000E-03   7.100000E-03   7.100000E-03   7.100000E-03   7.100000E-03   7.100000E-03   7.100000E-03   7.100000E-03   7.100000E-03   7.100000E-03   7.100000E-03   7.100000E-03   7.100000E-03   7.100000E-03   7.100000E-03   7.100000E-03   7.100000E-03   7.100000E-03   7.100000E-03   7.100000E-03   7.100000E-03   7.100000E-03   7.100000E-03   7.100000E-03   7.100000E-03   7.100000E-03   7.100000E-03   7.100000E-03   7.100000E-03   7.100000E-03   7.100000E-03   7.100000E-03   7.100000E-03   7.100000E-03   7.100000E-03   7.100000E-03   7.100000E-03   7.100000E-03   7.100000E-03   7.100000E-03   7.100000E-03   7.100000E-03   7.100000E-03   7.100000E-03   7.100000E-03   7.100000E-03   7.100000E-03   7.100000E-03   7.100000E-03   7.100000E-03   7.100000E-03   7.100000E-03   7.100000E-03   7.100000E-03   7.100000E-03   7.100000E-03   7.100000E-03   7.100000E-03   7.100000E-03   7.100000E-03   7.100000E-03   7.100000E-03   7.100000E-03   7.100000E-03   7.100000E-03   7.100000E-03   7.100000E-03   7.100000E-03   7.100000E-03   7.100000E-03   7.100000E-03   7.100000E-03   7.100000E-03   7.100000E-03   7.100000E-03   7.100000E-03   7.100000E-03   7.100000E-03   7.100000E-03   7.100000E-03   7.100000E-03   7.100000E-03   7.100000E-03   7.100000E-03   7.100000E-03   7.100000E-03   7.100000E-03   7.100000E-03   7.100000E-03   7.100000E-03   7.100000E-03   7.100000E-03   7.100000E-03   7.100000E-03   7.100000E-03   7.100000E-03   7.100000E-03   7.100000E-03
   7.100000E-03   7.100000E-03   7.100000E-03   7.100000E-03   7.100000E-03   7.100000E-03   7.100000E-03   7.100000E-03   7.100000E-03   7.100000E-03   7.100000E-03   7.100000E-03   7.100000E-03   7.100000E-03   7.100000E-03   7.100000E-03   7.100000E-03   7.100000E-03   7.100000E-03   7.100000E-03   7.100000E-03   7.100000E-03   7.100000E-03   7.100000E-03   7.100000E-03   7.100000E-03   7.100000E-03   7.100000E-03   7.100000E-03   7.100000E-03   7.100000E-03   7.100000E-03   7.100000E-03   7.100000E-03   7.100000E-03   7.100000E-03   7.100000E-03   7.100000E-03   7.100000E-03   7.100000E-03   7.100000E-03   7.100000E-03   7.100000E-03   7.100000E-03   7.100000E-03   7.100000E-03   7.100000E-03   7.100000E-03   7.100000E-03   7.100000E-03   7.100000E-03   7.100000E-03   7.100000E-03   7.100000E-03   7.100000E-03   7.100000E-03   7.100000E-03   7.100000E-03   7.100000E-03   7.100000E-03   7.100000E-03   7.100000E-03   7.100000E-03   7.100000E-03   7.100000E-03   7.100000E-03   7.100000E-03   7.100000E-03   7.100000E-03   7.100000E-03   7.100000E-03   7.100000E-03   7.100000E-03   7.100000E-03   7.100000E-03   7.100000E-03   7.100000E-03   7.100000E-03   7.100000E-03   7.100000E-03   7.100000E-03   7.100000E-03   7.100000E-03   7.100000E-03   7.100000E-03   7.100000E-03   7.100000E-03   7.100000E-03   7.100000E-03   7.100000E-03   7.100000E-03   7.100000E-03   7.100000E-03   7.100000E-03   7.100000E-03   7.100000E-03   7.100000E-03   7.100000E-03   7.100000E-03   7.100000E-03   7.100000E-03   7.100000E-03   7.100000E-03   7.100000E-03   7.100000E-03   7.100000E-03   7.100000E-03   7.100000E-03   7.100000E-03   7.100000E-03   7.100000E-03   7.100000E-03   7.100000E-03   7.100000E-03   7.100000E-03   7.100000E-03   7.100000E-03   7.100000E-03   7.100000E-03   7.100000E-03   7.100000E-03   7.100000E-03   7.100000E-03   7.100000E-03   7.100000E-03   7.100000E-03   7.100000E-03   7.100000E-03   7.100000E-03   7.100000E-03   7.100000E-03   7.100000E-03   7.100000E-03   7.100000E-03   7.100000E-03   7.100000E-03   7.100000E-03   7.100000E-03   7.100000E-03   7.100000E-03   7.100000E-03   7.100000E-03   7.100000E-03   7.100000E-03   7.100000E-03   7.100000E-03   7.100000E-03   7.100000E-03   7.100000E-03   7.100000E-03   7.100000E-03   7.100000E-03   7.100000E-03   7.100000E-03   7.100000E-03   7.100000E-03   7.100000E-03   7.100000E-03   7.100000E-03   7.100000E-03   7.100000E-03   7.100000E-03   7.100000E-03   7.100000E-03   7.100000E-03   7.100000E-03   7.100000E-03   7.100000E-03   7.100000E-03   7.100000E-03   7.100000E-03   7.100000E-03   7.100000E-03   7.100000E-03   7.100000E-03   7.100000E-03   7.100000E-03   7.100000E-03   7.100000E-03   7.100000E-03   7.100000E-03   7.100000E-03   7.100000E-03   7.100000E-03   7.100000E-03   7.100000E-03   7.100000E-03   7.100000E-03   7.100000E-03   7.100000E-03   7.100000E-03   7.100000E-03   7.100000E-03   7.100000E-03   7.100000E-03   7.100000E-03   7.100000E-03   7.100000E-03   7.100000E-03   7.100000E-03   7.100000E-03   7.100000E-03   7.100000E-03   7.100000E-03   7.100000E-03   7.100000E-03   7.100000E-03   7.100000E-03   7.100000E-03   7.100000E-03   7.100000E-03   7.100000E-03   7.100000E-03   7.100000E-03   7.100000E-03   7.100000E-03   7.100000E-03   7.100000E-03   7.100000E-03   7.100000E-03   7.100000E-03   7.100000E-03   7.100000E-03   7.100000E-03   7.100000E-03   7.100000E-03   7.100000E-03   7.100000E-03   7.100000E-03   7.100000E-03   7.100000E-03   7.100000E-03   7.100000E-03   7.100000E-03   7.100000E-03   7.100000E-03   7.100000E-03   7.100000E-03   7.100000E-03   7.100000E-03   7.100000E-03   7.100000E-03   7.100000E-03   7.100000E-03   7.100000E-03   7.100000E-03   7.100000E-03   7.100000E-03   7.100000E-03   7.100000E-03   7.100000E-03   7.100000E-03   7.100000E-03   7.100000E-03   7.100000E-03   7.100000E-03   7.100000E-03   7.100000E-03   7.100000E-03   7.100000E-03   7.100000E-03   7.100000E-03   7.100000E-03   7.100000E-03   7.100000E-03   7.100000E-03   7.100000E-03   7.100000E-03   7.100000E-03   7.100000E-03   7.100000E-03   7.100000E-03   7.100000E-03   7.100000E-03   7.100000E-03   7.100000E-03   7.100000E-03   7.100000E-03   7.100000E-03   7.100000E-03   7.100000E-03   7.100000E-03   7.100000E-03   7.100000E-03   7.100000E-03   7.100000E-03   7.100000E-03   7.100000E-03   7.100000E-03   7.100000E-03   7.100000E-03   7.100000E-03   7.100000E-03   7.100000E-03   7.100000E-03   7.100000E-03   7.100000E-03   7.100000E-03   7.100000E-03   7.100000E-03   7.100000E-03   7.100000E-03   7.100000E-03   7.100000E-03   7.100000E-03   7.100000E-03   7.100000E-03   7.100000E-03   7.100000E-03   7.100000E-03   7.100000E-03   7.100000E-03   7.100000E-03   7.100000E-03   7.100000E-03   7.100000E-03   7.100000E-03   7.100000E-03   7.100000E-03   7.100000E-03   7.100000E-03   7.100000E-03   7.100000E-03   7.100000E-03   7.100000E-03   7.100000E-03   7.100000E-03   7.100000E-03   7.100000E-03   7.100000E-03   7.100000E-03   7.100000E-03   7.100000E-03   7.100000E-03   7.100000E-03   7.100000E-03   7.100000E-03   7.100000E-03   7.100000E-03   7.100000E-03   7.100000E-03   7.100000E-03   7.100000E-03   7.100000E-03   7.100000E-03   7.100000E-03   7.100000E-03   7.100000E-03   7.100000E-03   7.100000E-03   7.100000E-03   7.100000E-03   7.100000E-03   7.100000E-03   7.100000E-03   7.100000E-03   7.100000E-03   7.100000E-03   7.100000E-03   7.100000E-03   7.100000E-03   7.100000E-03   7.100000E-03   7.100000E-03
   7.100000E-03   7.100000E-03   7.100000E-03   7.100000E-03   7.100000E-03   7.100000E-03   7.100000E-03   7.100000E-03   7.100000E-03   7.100000E-03   7.100000E-03   7.100000E-03   7.100000E-03   7.100000E-03   7.100000E-03   7.100000E-03   7.100000E-03   7.100000E-03   7.100000E-03   7.100000E-03   7.100000E-03   7.100000E-03   7.100000E-03   7.100000E-03   7.100000E-03   7.100000E-03   7.100000E-03   7.100000E-03   7.100000E-03   7.100000E-03   7.100000E-03   7.100000E-03   7.100000E-03   7.100000E-03   7.100000E-03   7.100000E-03   7.100000E-03   7.100000E-03   7.100000E-03   7.100000E-03   7.100000E-03   7.100000E-03   7.100000E-03   7.100000E-03   7.100000E-03   7.100000E-03   7.100000E-03   7.100000E-03   7.100000E-03   7.100000E-03   7.100000E-03   7.100000E-03   7.100000E-03   7.100000E-03   7.100000E-03   7.100000E-03   7.100000E-03   7.100000E-03   7.100000E-03   7.100000E-03   7.100000E-03   7.100000E-03   7.100000E-03   7.100000E-03   7.100000E-03   7.100000E-03   7.100000E-03   7.100000E-03   7.100000E-03   7.100000E-03   7.100000E-03   7.100000E-03   7.100000E-03   7.100000E-03   7.100000E-03   7.100000E-03   7.100000E-03   7.100000E-03   7.100000E-03   7.100000E-03   7.100000E-03   7.100000E-03   7.100000E-03   7.100000E-03   7.100000E-03   7.100000E-03   7.100000E-03   7.100000E-03   7.100000E-03   7.100000E-03   7.100000E-03   7.100000E-03   7.100000E-03   7.100000E-03   7.100000E-03   7.100000E-03   7.100000E-03   7.100000E-03   7.100000E-03   7.100000E-03   7.100000E-03   7.100000E-03   7.100000E-03   7.100000E-03   7.100000E-03   7.100000E-03   7.100000E-03   7.100000E-03   7.100000E-03   7.100000E-03   7.100000E-03   7.100000E-03   7.100000E-03   7.100000E-03   7.100000E-03   7.100000E-03   7.100000E-03   7.100000E-03   7.100000E-03   7.100000E-03   7.100000E-03   7.100000E-03   7.100000E-03   7.100000E-03   7.100000E-03   7.100000E-03   7.100000E-03   7.100000E-03   7.100000E-03   7.100000E-03   7.100000E-03   7.100000E-03   7.100000E-03   7.100000E-03   7.100000E-03   7.100000E-03   7.100000E-03   7.100000E-03   7.100000E-03   7.100000E-03   7.100000E-03   7.100000E-03   7.100000E-03   7.100000E-03   7.100000E-03   7.100000E-03   7.100000E-03   7.100000E-03   7.100000E-03   7.100000E-03   7.100000E-03   7.100000E-03   7.100000E-03   7.100000E-03   7.100000E-03   7.100000E-03   7.100000E-03   7.100000E-03   7.100000E-03   7.100000E-03   7.100000E-03   7.100000E-03   7.100000E-03   7.100000E-03   7.100000E-03   7.100000E-03   7.100000E-03   7.100000E-03   7.100000E-03   7.100000E-03   7.100000E-03   7.100000E-03   7.100000E-03   7.100000E-03   7.100000E-03   7.100000E-03   7.100000E-03   7.100000E-03   7.100000E-03   7.100000E-03   7.100000E-03   7.100000E-03   7.100000E-03   7.100000E-03   7.100000E-03   7.100000E-03   7.100000E-03   7.100000E-03   7.100000E-03   7.100000E-03   7.100000E-03   7.100000E-03   7.100000E-03   7.100000E-03   7.100000E-03   7.100000E-03   7.100000E-03   7.100000E-03   7.100000E-03   7.100000E-03   7.100000E-03   7.100000E-03   7.100000E-03   7.100000E-03   7.100000E-03   7.100000E-03   7.100000E-03   7.100000E-03   7.100000E-03   7.100000E-03   7.100000E-03   7.100000E-03   7.100000E-03   7.100000E-03   7.100000E-03   7.100000E-03   7.100000E-03   7.100000E-03   7.100000E-03   7.100000E-03   7.100000E-03   7.100000E-03   7.100000E-03   7.100000E-03   7.100000E-03   7.100000E-03   7.100000E-03   7.100000E-03   7.100000E-03   7.100000E-03   7.100000E-03   7.100000E-03   7.100000E-03   7.100000E-03   7.100000E-03   7.100000E-03   7.100000E-03   7.100000E-03   7.100000E-03   7.100000E-03   7.100000E-03   7.100000E-03   7.100000E-03   7.100000E-03   7.100000E-03   7.100000E-03   7.100000E-03   7.100000E-03   7.100000E-03   7.100000E-03   7.100000E-03   7.100000E-03   7.100000E-03   7.100000E-03   7.100000E-03   7.100000E-03   7.100000E-03   7.100000E-03   7.100000E-03   7.100000E-03   7.100000E-03   7.100000E-03   7.100000E-03   7.100000E-03   7.100000E-03   7.100000E-03   7.100000E-03   7.100000E-03   7.100000E-03   7.100000E-03   7.100000E-03   7.100000E-03   7.100000E-03   7.100000E-03   7.100000E-03   7.100000E-03   7.100000E-03   7.100000E-03   7.100000E-03   7.100000E-03   7.100000E-03   7.100000E-03   7.100000E-03   7.100000E-03   7.100000E-03   7.100000E-03   7.100000E-03   7.100000E-03   7.100000E-03   7.100000E-03   7.100000E-03   7.100000E-03   7.100000E-03   7.100000E-03   7.100000E-03   7.100000E-03   7.100000E-03   7.100000E-03   7.100000E-03   7.100000E-03   7.100000E-03   7.100000E-03   7.100000E-03   7.100000E-03   7.100000E-03   7.100000E-03   7.100000E-03   7.100000E-03   7.100000E-03   7.100000E-03   7.100000E-03   7.100000E-03   7.100000E-03   7.100000E-03   7.100000E-03   7.100000E-03   7.100000E-03   7.100000E-03   7.100000E-03   7.100000E-03   7.100000E-03   7.100000E-03   7.100000E-03   7.100000E-03   7.100000E-03   7.100000E-03   7.100000E-03   7.100000E-03   7.100000E-03   7.100000E-03   7.100000E-03   7.100000E-03   7.100000E-03   7.100000E-03   7.100000E-03   7.100000E-03   7.100000E-03   7.100000E-03   7.100000E-03   7.100000E-03   7.100000E-03   7.100000E-03   7.100000E-03   7.100000E-03   7.100000E-03   7.100000E-03   7.100000E-03   7.100000E-03   7.100000E-03   7.100000E-03   7.100000E-03   7.100000E-03   7.100000E-03   7.100000E-03   7.100000E-03   7.100000E-03   7.100000E-03   7.100000E-03   7.100000E-03   7.100000E-03   7.100000E-03   7.100000E-03   7.100000E-03   7.100000E-03
   7.100000E-03   7.100000E-03   7.100000E-03   7.100000E-03   7.100000E-03   7.100000E-03   7.100000E-03   7.100000E-03   7.100000E-03   7.100000E-03   7.100000E-03   7.100000E-03   7.100000E-03   7.100000E-03   7.100000E-03   7.100000E-03   7.100000E-03   7.100000E-03   7.100000E-03   7.100000E-03   7.100000E-03   7.100000E-03   7.100000E-03   7.100000E-03   7.100000E-03   7.100000E-03   7.100000E-03   7.100000E-03   7.100000E-03   7.100000E-03   7.100000E-03   7.100000E-03   7.100000E-03   7.100000E-03   7.100000E-03   7.100000E-03   7.100000E-03   7.100000E-03   7.100000E-03   7.100000E-03   7.100000E-03   7.100000E-03   7.100000E-03   7.100000E-03   7.100000E-03   7.100000E-03   7.100000E-03   7.100000E-03   7.100000E-03   7.100000E-03   7.100000E-03   7.100000E-03   7.100000E-03   7.100000E-03   7.100000E-03   7.100000E-03   7.100000E-03   7.100000E-03   7.100000E-03   7.100000E-03   7.100000E-03   7.100000E-03   7.100000E-03   7.100000E-03   7.100000E-03   7.100000E-03   7.100000E-03   7.100000E-03   7.100000E-03   7.100000E-03   7.100000E-03   7.100000E-03   7.100000E-03   7.100000E-03   7.100000E-03   7.100000E-03   7.100000E-03   7.100000E-03   7.100000E-03   7.100000E-03   7.100000E-03   7.100000E-03   7.100000E-03   7.100000E-03   7.100000E-03   7.100000E-03   7.100000E-03   7.100000E-03   7.100000E-03   7.100000E-03   7.100000E-03   7.100000E-03   7.100000E-03   7.100000E-03   7.100000E-03   7.100000E-03   7.100000E-03   7.100000E-03   7.100000E-03   7.100000E-03   7.100000E-03   7.100000E-03   7.100000E-03   7.100000E-03   7.100000E-03   7.100000E-03   7.100000E-03   7.100000E-03   7.100000E-03   7.100000E-03   7.100000E-03   7.100000E-03   7.100000E-03   7.100000E-03   7.100000E-03   7.100000E-03   7.100000E-03   7.100000E-03   7.100000E-03   7.100000E-03   7.100000E-03   7.100000E-03   7.100000E-03   7.100000E-03   7.100000E-03   7.100000E-03   7.100000E-03   7.100000E-03   7.100000E-03   7.100000E-03   7.100000E-03   7.100000E-03   7.100000E-03   7.100000E-03   7.100000E-03   7.100000E-03   7.100000E-03   7.100000E-03   7.100000E-03   7.100000E-03   7.100000E-03   7.100000E-03   7.100000E-03   7.100000E-03   7.100000E-03   7.100000E-03   7.100000E-03   7.100000E-03   7.100000E-03   7.100000E-03   7.100000E-03   7.100000E-03   7.100000E-03   7.100000E-03   7.100000E-03   7.100000E-03   7.100000E-03   7.100000E-03   7.100000E-03   7.100000E-03   7.100000E-03   7.100000E-03   7.100000E-03   7.100000E-03   7.100000E-03   7.100000E-03   7.100000E-03   7.100000E-03   7.100000E-03   7.100000E-03   7.100000E-03   7.100000E-03   7.100000E-03   7.100000E-03   7.100000E-03   7.100000E-03   7.100000E-03   7.100000E-03   7.100000E-03   7.100000E-03   7.100000E-03   7.100000E-03   7.100000E-03   7.100000E-03   7.100000E-03   7.100000E-03   7.100000E-03   7.100000E-03   7.100000E-03   7.100000E-03   7.100000E-03   7.100000E-03   7.100000E-03   7.100000E-03   7.100000E-03   7.100000E-03   7.100000E-03   7.100000E-03   7.100000E-03   7.100000E-03   7.100000E-03   7.100000E-03   7.100000E-03   7.100000E-03   7.100000E-03   7.100000E-03   7.100000E-03   7.100000E-03   7.100000E-03   7.100000E-03   7.100000E-03   7.100000E-03   7.100000E-03   7.100000E-03   7.100000E-03   7.100000E-03   7.100000E-03   7.100000E-03   7.100000E-03   7.100000E-03   7.100000E-03   7.100000E-03   7.100000E-03   7.100000E-03   7.100000E-03   7.100000E-03   7.100000E-03   7.100000E-03   7.100000E-03   7.100000E-03   7.100000E-03   7.100000E-03   7.100000E-03   7.100000E-03   7.100000E-03   7.100000E-03   7.100000E-03   7.100000E-03   7.100000E-03   7.100000E-03   7.100000E-03   7.100000E-03   7.100000E-03   7.100000E-03   7.100000E-03   7.100000E-03   7.100000E-03   7.100000E-03   7.100000E-03   7.100000E-03   7.100000E-03   7.100000E-03   7.100000E-03   7.100000E-03   7.100000E-03   7.100000E-03   7.100000E-03   7.100000E-03   7.100000E-03   7.100000E-03   7.100000E-03   7.100000E-03   7.100000E-03   7.100000E-03   7.100000E-03   7.100000E-03   7.100000E-03   7.100000E-03   7.100000E-03   7.100000E-03   7.100000E-03   7.100000E-03   7.100000E-03   7.100000E-03   7.100000E-03   7.100000E-03   7.100000E-03   7.100000E-03   7.100000E-03   7.100000E-03   7.100000E-03   7.100000E-03   7.100000E-03   7.100000E-03   7.100000E-03   7.100000E-03   7.100000E-03   7.100000E-03   7.100000E-03   7.100000E-03   7.100000E-03   7.100000E-03   7.100000E-03   7.100000E-03   7.100000E-03   7.100000E-03   7.100000E-03   7.100000E-03   7.100000E-03   7.100000E-03   7.100000E-03   7.100000E-03   7.100000E-03   7.100000E-03   7.100000E-03   7.100000E-03   7.100000E-03   7.100000E-03   7.100000E-03   7.100000E-03   7.100000E-03   7.100000E-03   7.100000E-03   7.100000E-03   7.100000E-03   7.100000E-03   7.100000E-03   7.100000E-03   7.100000E-03   7.100000E-03   7.100000E-03   7.100000E-03   7.100000E-03   7.100000E-03   7.100000E-03   7.100000E-03   7.100000E-03   7.100000E-03   7.100000E-03   7.100000E-03   7.100000E-03   7.100000E-03   7.100000E-03   7.100000E-03   7.100000E-03   7.100000E-03   7.100000E-03   7.100000E-03   7.100000E-03   7.100000E-03   7.100000E-03   7.100000E-03   7.100000E-03   7.100000E-03   7.100000E-03   7.100000E-03   7.100000E-03   7.100000E-03   7.100000E-03   7.100000E-03   7.100000E-03   7.100000E-03   7.100000E-03   7.100000E-03   7.100000E-03   7.100000E-03   7.100000E-03   7.100000E-03   7.100000E-03   7.100000E-03   7.100000E-03   7.100000E-03   7.100000E-03   7.100000E-03