# DIS package for MODFLOW-2005 generated by Flopy 3.3.6
         1       280       364         1         5         2
  0
CONSTANT    1.000000E+01                           #delr                          
CONSTANT    1.000000E+01                           #delc                          
INTERNAL               1 (364E15.6) -1 #model_top                     
   3.862867E+02   3.862033E+02   3.860456E+02   3.858122E+02   3.855489E+02   3.852389E+02   3.849333E+02   3.846989E+02   3.845889E+02   3.844733E+02   3.843522E+02   3.841500E+02   3.840389E+02   3.836867E+02   3.831444E+02   3.823789E+02   3.810244E+02   3.789911E+02   3.757967E+02   3.725889E+02   3.699811E+02   3.688167E+02   3.684489E+02   3.683500E+02   3.681844E+02   3.683244E+02   3.685555E+02   3.689067E+02   3.690478E+02   3.692545E+02   3.693978E+02   3.695811E+02   3.697044E+02   3.698811E+02   3.699389E+02   3.699689E+02   3.699122E+02   3.699022E+02   3.698989E+02   3.698611E+02   3.699044E+02   3.700178E+02   3.702033E+02   3.703644E+02   3.704489E+02   3.705978E+02   3.706589E+02   3.711800E+02   3.721789E+02   3.726222E+02   3.726611E+02   3.721067E+02   3.723822E+02   3.731322E+02   3.745978E+02   3.760589E+02   3.771778E+02   3.777000E+02   3.779000E+02   3.777722E+02   3.775900E+02   3.776555E+02   3.778900E+02   3.782467E+02   3.785889E+02   3.788678E+02   3.790411E+02   3.791311E+02   3.793122E+02   3.795178E+02   3.797245E+02   3.799411E+02   3.801800E+02   3.804422E+02   3.807178E+02   3.810000E+02   3.812822E+02   3.815722E+02   3.818845E+02   3.822322E+02   3.826022E+02   3.830022E+02   3.833922E+02   3.837744E+02   3.841167E+02   3.844034E+02   3.846333E+02   3.847578E+02   3.848078E+02   3.847722E+02   3.846122E+02   3.843800E+02   3.841133E+02   3.838889E+02   3.837089E+02   3.836011E+02   3.836178E+02   3.837122E+02   3.838489E+02   3.840000E+02   3.841667E+02   3.843533E+02   3.845400E+02   3.847500E+02   3.849322E+02   3.850889E+02   3.852078E+02   3.852811E+02   3.852478E+02   3.851311E+02   3.849500E+02   3.847411E+02   3.845189E+02   3.843178E+02   3.841589E+02   3.840678E+02   3.840322E+02   3.840589E+02   3.841322E+02   3.842411E+02   3.844256E+02   3.846144E+02   3.848389E+02   3.850711E+02   3.853445E+02   3.856222E+02   3.858911E+02   3.861922E+02   3.865311E+02   3.867611E+02   3.869311E+02   3.870555E+02   3.872078E+02   3.872956E+02   3.873267E+02   3.872944E+02   3.872644E+02   3.872144E+02   3.871833E+02   3.871044E+02   3.870278E+02   3.869733E+02   3.869800E+02   3.870111E+02   3.870211E+02   3.870633E+02   3.871089E+02   3.871067E+02   3.870322E+02   3.869022E+02   3.868056E+02   3.867322E+02   3.866811E+02   3.866656E+02   3.866389E+02   3.866056E+02   3.865733E+02   3.865311E+02   3.864600E+02   3.862822E+02   3.860533E+02   3.857689E+02   3.854933E+02   3.852311E+02   3.849989E+02   3.848322E+02   3.847067E+02   3.846833E+02   3.847578E+02   3.849022E+02   3.850689E+02   3.852489E+02   3.854544E+02   3.856400E+02   3.857811E+02   3.858389E+02   3.858156E+02   3.856933E+02   3.855244E+02   3.853289E+02   3.851267E+02   3.849300E+02   3.847245E+02   3.845322E+02   3.843244E+02   3.841544E+02   3.839733E+02   3.838378E+02   3.837500E+02   3.837267E+02   3.837333E+02   3.837322E+02   3.837811E+02   3.838533E+02   3.839611E+02   3.840844E+02   3.841956E+02   3.843556E+02   3.845489E+02   3.847778E+02   3.849789E+02   3.851744E+02   3.854233E+02   3.857133E+02   3.860833E+02   3.864644E+02   3.868700E+02   3.872222E+02   3.878500E+02   3.882333E+02   3.886967E+02   3.888244E+02   3.891245E+02   3.892744E+02   3.893711E+02   3.894256E+02   3.894667E+02   3.895111E+02   3.895633E+02   3.896144E+02   3.896778E+02   3.897822E+02   3.899300E+02   3.900956E+02   3.902511E+02   3.903889E+02   3.905211E+02   3.906544E+02   3.907911E+02   3.909078E+02   3.910045E+02   3.911044E+02   3.912078E+02   3.912989E+02   3.913533E+02   3.914100E+02   3.914711E+02   3.915656E+02   3.916711E+02   3.917689E+02   3.918467E+02   3.918989E+02   3.919367E+02   3.918767E+02   3.917778E+02   3.916689E+02   3.915811E+02   3.916278E+02   3.917622E+02   3.918156E+02   3.917956E+02   3.916811E+02   3.917044E+02   3.916844E+02   3.916511E+02   3.915844E+02   3.915211E+02   3.914811E+02   3.914411E+02   3.913844E+02   3.912767E+02   3.911544E+02   3.910300E+02   3.909200E+02   3.907678E+02   3.905656E+02   3.903400E+02   3.901189E+02   3.899422E+02   3.898200E+02   3.897411E+02   3.896956E+02   3.896744E+02   3.897111E+02   3.897800E+02   3.898644E+02   3.899822E+02   3.901000E+02   3.902533E+02   3.903989E+02   3.905600E+02   3.907011E+02   3.908322E+02   3.909544E+02   3.910844E+02   3.912300E+02   3.914289E+02   3.917956E+02   3.920722E+02   3.923278E+02   3.924011E+02   3.925544E+02   3.926611E+02   3.927822E+02   3.929111E+02   3.930578E+02   3.932078E+02   3.933522E+02   3.934955E+02   3.936078E+02   3.937144E+02   3.937922E+02   3.938678E+02   3.939222E+02   3.939678E+02   3.939867E+02   3.939456E+02   3.938811E+02   3.938200E+02   3.937678E+02   3.937422E+02   3.937233E+02   3.937444E+02   3.937733E+02   3.938389E+02   3.939122E+02   3.939989E+02   3.940833E+02   3.941967E+02   3.943211E+02   3.944500E+02   3.945544E+02   3.946622E+02   3.947767E+02   3.949178E+02   3.950478E+02   3.951367E+02   3.951567E+02   3.950945E+02   3.949889E+02   3.948167E+02   3.946500E+02   3.944689E+02   3.943078E+02   3.941467E+02   3.939844E+02   3.938811E+02   3.938056E+02   3.937467E+02   3.936522E+02   3.935222E+02   3.933978E+02   3.932900E+02   3.932211E+02   3.931522E+02   3.930900E+02   3.930544E+02   3.930100E+02   3.930289E+02   3.930467E+02   3.931422E+02   3.932167E+02   3.932845E+02   3.933433E+02   3.933344E+02   3.932900E+02   3.931922E+02   3.930789E+02   3.929767E+02   3.928755E+02   3.927556E+02   3.926422E+02   3.925617E+02   3.925433E+02
   3.863678E+02   3.862956E+02   3.861645E+02   3.859767E+02   3.857578E+02   3.854900E+02   3.852044E+02   3.849800E+02   3.848789E+02   3.847467E+02   3.845789E+02   3.843278E+02   3.842100E+02   3.840267E+02   3.837122E+02   3.832567E+02   3.821467E+02   3.805956E+02   3.780200E+02   3.750789E+02   3.720678E+02   3.699144E+02   3.689022E+02   3.685089E+02   3.684189E+02   3.683767E+02   3.684745E+02   3.686533E+02   3.687511E+02   3.688989E+02   3.690111E+02   3.692289E+02   3.692767E+02   3.693533E+02   3.693178E+02   3.692944E+02   3.692100E+02   3.691600E+02   3.691756E+02   3.691722E+02   3.693022E+02   3.695244E+02   3.697833E+02   3.699767E+02   3.700511E+02   3.701922E+02   3.702267E+02   3.707656E+02   3.717800E+02   3.720411E+02   3.718689E+02   3.712533E+02   3.715855E+02   3.722500E+02   3.734500E+02   3.749567E+02   3.762667E+02   3.769145E+02   3.768711E+02   3.766345E+02   3.766878E+02   3.771589E+02   3.776533E+02   3.780900E+02   3.784533E+02   3.787833E+02   3.789678E+02   3.791100E+02   3.793178E+02   3.795289E+02   3.797422E+02   3.799589E+02   3.801978E+02   3.804433E+02   3.807022E+02   3.809556E+02   3.812200E+02   3.814978E+02   3.818011E+02   3.821356E+02   3.825022E+02   3.828967E+02   3.832967E+02   3.836900E+02   3.840589E+02   3.843633E+02   3.845967E+02   3.846855E+02   3.846767E+02   3.845589E+02   3.843422E+02   3.840678E+02   3.837967E+02   3.835778E+02   3.834156E+02   3.833200E+02   3.833133E+02   3.833778E+02   3.834822E+02   3.836489E+02   3.838222E+02   3.840111E+02   3.841967E+02   3.844000E+02   3.845878E+02   3.847545E+02   3.848755E+02   3.849711E+02   3.849600E+02   3.848933E+02   3.847400E+02   3.845389E+02   3.843233E+02   3.841322E+02   3.839867E+02   3.838978E+02   3.838589E+02   3.839133E+02   3.840278E+02   3.841789E+02   3.843734E+02   3.845744E+02   3.848178E+02   3.850711E+02   3.853489E+02   3.856278E+02   3.858956E+02   3.862111E+02   3.865522E+02   3.867989E+02   3.869589E+02   3.870744E+02   3.872100E+02   3.872900E+02   3.873078E+02   3.872589E+02   3.872200E+02   3.871378E+02   3.870922E+02   3.870100E+02   3.869478E+02   3.868878E+02   3.868867E+02   3.869022E+02   3.869178E+02   3.869000E+02   3.869622E+02   3.869456E+02   3.869200E+02   3.867956E+02   3.867078E+02   3.866267E+02   3.865522E+02   3.865244E+02   3.864767E+02   3.864244E+02   3.863633E+02   3.863189E+02   3.862678E+02   3.861400E+02   3.859733E+02   3.857389E+02   3.854856E+02   3.852178E+02   3.849711E+02   3.847944E+02   3.846611E+02   3.846389E+02   3.846978E+02   3.848311E+02   3.849789E+02   3.851700E+02   3.853878E+02   3.855956E+02   3.857311E+02   3.857833E+02   3.857389E+02   3.856056E+02   3.854211E+02   3.852267E+02   3.850333E+02   3.848445E+02   3.846411E+02   3.844311E+02   3.842211E+02   3.840367E+02   3.838711E+02   3.837356E+02   3.836589E+02   3.836267E+02   3.836456E+02   3.836567E+02   3.837178E+02   3.837878E+02   3.838944E+02   3.840189E+02   3.841267E+02   3.842611E+02   3.844400E+02   3.846500E+02   3.848578E+02   3.850500E+02   3.852811E+02   3.855500E+02   3.859000E+02   3.862733E+02   3.866756E+02   3.870211E+02   3.876600E+02   3.880333E+02   3.885133E+02   3.886689E+02   3.890222E+02   3.892322E+02   3.893700E+02   3.894544E+02   3.894944E+02   3.895156E+02   3.895511E+02   3.895778E+02   3.896411E+02   3.897411E+02   3.898944E+02   3.900511E+02   3.902022E+02   3.903300E+02   3.904544E+02   3.905700E+02   3.906900E+02   3.907989E+02   3.908933E+02   3.909944E+02   3.910911E+02   3.911689E+02   3.912155E+02   3.912755E+02   3.913511E+02   3.914811E+02   3.916178E+02   3.917411E+02   3.918244E+02   3.918878E+02   3.919333E+02   3.918656E+02   3.917545E+02   3.916356E+02   3.915367E+02   3.915978E+02   3.917911E+02   3.918533E+02   3.917778E+02   3.916011E+02   3.916089E+02   3.916067E+02   3.915556E+02   3.914933E+02   3.914433E+02   3.914100E+02   3.913767E+02   3.913333E+02   3.912300E+02   3.911000E+02   3.909567E+02   3.908400E+02   3.906889E+02   3.904922E+02   3.902722E+02   3.900478E+02   3.898711E+02   3.897522E+02   3.896867E+02   3.896578E+02   3.896578E+02   3.897367E+02   3.898433E+02   3.899689E+02   3.901089E+02   3.902344E+02   3.903911E+02   3.905222E+02   3.906578E+02   3.907578E+02   3.908544E+02   3.909456E+02   3.910433E+02   3.911589E+02   3.913411E+02   3.917233E+02   3.920133E+02   3.922900E+02   3.923644E+02   3.925178E+02   3.926233E+02   3.927467E+02   3.928778E+02   3.930244E+02   3.931656E+02   3.932878E+02   3.934078E+02   3.935056E+02   3.936100E+02   3.936822E+02   3.937533E+02   3.938256E+02   3.939089E+02   3.939678E+02   3.939667E+02   3.939355E+02   3.938911E+02   3.938378E+02   3.937989E+02   3.937822E+02   3.938000E+02   3.938211E+02   3.938800E+02   3.939478E+02   3.940189E+02   3.940778E+02   3.941700E+02   3.942867E+02   3.944055E+02   3.945156E+02   3.946267E+02   3.947489E+02   3.948745E+02   3.949878E+02   3.950789E+02   3.951411E+02   3.951267E+02   3.950611E+02   3.949022E+02   3.947433E+02   3.945500E+02   3.943811E+02   3.942133E+02   3.940444E+02   3.939489E+02   3.938867E+02   3.938478E+02   3.937433E+02   3.936078E+02   3.934644E+02   3.933422E+02   3.932500E+02   3.931544E+02   3.930622E+02   3.929944E+02   3.929622E+02   3.929589E+02   3.929400E+02   3.929889E+02   3.930433E+02   3.931211E+02   3.931967E+02   3.932111E+02   3.932089E+02   3.931333E+02   3.930711E+02   3.929911E+02   3.929133E+02   3.927967E+02   3.926833E+02   3.926017E+02   3.925800E+02
   3.864522E+02   3.863989E+02   3.863011E+02   3.861500E+02   3.859500E+02   3.857044E+02   3.854355E+02   3.852478E+02   3.851644E+02   3.850345E+02   3.848156E+02   3.844989E+02   3.842800E+02   3.841222E+02   3.840211E+02   3.837400E+02   3.828544E+02   3.816544E+02   3.798656E+02   3.777067E+02   3.748300E+02   3.718978E+02   3.698511E+02   3.687911E+02   3.686033E+02   3.685222E+02   3.685133E+02   3.686067E+02   3.685689E+02   3.686822E+02   3.687222E+02   3.688944E+02   3.688644E+02   3.688778E+02   3.688567E+02   3.688522E+02   3.688122E+02   3.689456E+02   3.691478E+02   3.692944E+02   3.694978E+02   3.696833E+02   3.698800E+02   3.699189E+02   3.699867E+02   3.701589E+02   3.702611E+02   3.707411E+02   3.716433E+02   3.717755E+02   3.715478E+02   3.708100E+02   3.708622E+02   3.711644E+02   3.718822E+02   3.732367E+02   3.744667E+02   3.753400E+02   3.754522E+02   3.755578E+02   3.760800E+02   3.769544E+02   3.776356E+02   3.780433E+02   3.783022E+02   3.786500E+02   3.788767E+02   3.791044E+02   3.793256E+02   3.795322E+02   3.797556E+02   3.799778E+02   3.802133E+02   3.804544E+02   3.807033E+02   3.809445E+02   3.811833E+02   3.814367E+02   3.817300E+02   3.820555E+02   3.824200E+02   3.828089E+02   3.832100E+02   3.835945E+02   3.839700E+02   3.842845E+02   3.845156E+02   3.845678E+02   3.844955E+02   3.843122E+02   3.840567E+02   3.837755E+02   3.835089E+02   3.832956E+02   3.831489E+02   3.830756E+02   3.830544E+02   3.830767E+02   3.831467E+02   3.833011E+02   3.834756E+02   3.836600E+02   3.838467E+02   3.840400E+02   3.842289E+02   3.843933E+02   3.845244E+02   3.846300E+02   3.846500E+02   3.846044E+02   3.844655E+02   3.842656E+02   3.840700E+02   3.839100E+02   3.838189E+02   3.837667E+02   3.837455E+02   3.838078E+02   3.839400E+02   3.841300E+02   3.843611E+02   3.846011E+02   3.848734E+02   3.851433E+02   3.854189E+02   3.856855E+02   3.859411E+02   3.862511E+02   3.866000E+02   3.868611E+02   3.870111E+02   3.870956E+02   3.871945E+02   3.872722E+02   3.872856E+02   3.872389E+02   3.871844E+02   3.871111E+02   3.870578E+02   3.869789E+02   3.869033E+02   3.868567E+02   3.868622E+02   3.868778E+02   3.868600E+02   3.868000E+02   3.868289E+02   3.868078E+02   3.867989E+02   3.866978E+02   3.866300E+02   3.865511E+02   3.864733E+02   3.864178E+02   3.863445E+02   3.862545E+02   3.861722E+02   3.861089E+02   3.860578E+02   3.859556E+02   3.858178E+02   3.856233E+02   3.853911E+02   3.851489E+02   3.849167E+02   3.847367E+02   3.846189E+02   3.845922E+02   3.846500E+02   3.847645E+02   3.849055E+02   3.851078E+02   3.853378E+02   3.855589E+02   3.857033E+02   3.857533E+02   3.857044E+02   3.855744E+02   3.854022E+02   3.852245E+02   3.850244E+02   3.848211E+02   3.846056E+02   3.843822E+02   3.841678E+02   3.839622E+02   3.837944E+02   3.836600E+02   3.835900E+02   3.835322E+02   3.835456E+02   3.835844E+02   3.836800E+02   3.837478E+02   3.838311E+02   3.839344E+02   3.840400E+02   3.841555E+02   3.843333E+02   3.845345E+02   3.847511E+02   3.849500E+02   3.851733E+02   3.854267E+02   3.857589E+02   3.861300E+02   3.865233E+02   3.868611E+02   3.874889E+02   3.878600E+02   3.883278E+02   3.884844E+02   3.888422E+02   3.890789E+02   3.892522E+02   3.893766E+02   3.894478E+02   3.894778E+02   3.895100E+02   3.895333E+02   3.896011E+02   3.897044E+02   3.898511E+02   3.899955E+02   3.901266E+02   3.902378E+02   3.903456E+02   3.904478E+02   3.905533E+02   3.906567E+02   3.907500E+02   3.908489E+02   3.909422E+02   3.910189E+02   3.910567E+02   3.911067E+02   3.911822E+02   3.913278E+02   3.914878E+02   3.916322E+02   3.917500E+02   3.918300E+02   3.918911E+02   3.918389E+02   3.917433E+02   3.916378E+02   3.915233E+02   3.915578E+02   3.917144E+02   3.917600E+02   3.916667E+02   3.915133E+02   3.915111E+02   3.915100E+02   3.914411E+02   3.913933E+02   3.913589E+02   3.913322E+02   3.912922E+02   3.912556E+02   3.911456E+02   3.910089E+02   3.908356E+02   3.907078E+02   3.905433E+02   3.903589E+02   3.901411E+02   3.899378E+02   3.897811E+02   3.896855E+02   3.896444E+02   3.896389E+02   3.896744E+02   3.898022E+02   3.899655E+02   3.901333E+02   3.902989E+02   3.904322E+02   3.905844E+02   3.907011E+02   3.908145E+02   3.908911E+02   3.909400E+02   3.909922E+02   3.910489E+02   3.911500E+02   3.913567E+02   3.917389E+02   3.920333E+02   3.922755E+02   3.923422E+02   3.924844E+02   3.925878E+02   3.927089E+02   3.928411E+02   3.929789E+02   3.931278E+02   3.932511E+02   3.933600E+02   3.934367E+02   3.935322E+02   3.935989E+02   3.936678E+02   3.937389E+02   3.938389E+02   3.939289E+02   3.939567E+02   3.939578E+02   3.939467E+02   3.939211E+02   3.939033E+02   3.938967E+02   3.939055E+02   3.939078E+02   3.939433E+02   3.940045E+02   3.940678E+02   3.941122E+02   3.941744E+02   3.942656E+02   3.943678E+02   3.944767E+02   3.945811E+02   3.946900E+02   3.947956E+02   3.949044E+02   3.949944E+02   3.950744E+02   3.950911E+02   3.950622E+02   3.949389E+02   3.947989E+02   3.946167E+02   3.944422E+02   3.942633E+02   3.940867E+02   3.940278E+02   3.939767E+02   3.939478E+02   3.938245E+02   3.936911E+02   3.935422E+02   3.933922E+02   3.932611E+02   3.931589E+02   3.930667E+02   3.929900E+02   3.929433E+02   3.928933E+02   3.928478E+02   3.928433E+02   3.928811E+02   3.929511E+02   3.930144E+02   3.930389E+02   3.930656E+02   3.930356E+02   3.930211E+02   3.929633E+02   3.929145E+02   3.928067E+02   3.927067E+02   3.926283E+02   3.926067E+02
   3.864789E+02   3.864267E+02   3.863400E+02   3.862167E+02   3.860489E+02   3.858433E+02   3.856200E+02   3.854778E+02   3.854167E+02   3.852622E+02   3.849967E+02   3.846422E+02   3.843911E+02   3.841644E+02   3.840000E+02   3.836444E+02   3.829844E+02   3.820911E+02   3.809667E+02   3.795733E+02   3.775289E+02   3.747189E+02   3.721511E+02   3.702200E+02   3.694500E+02   3.690178E+02   3.688256E+02   3.687867E+02   3.686622E+02   3.687056E+02   3.687033E+02   3.688745E+02   3.688322E+02   3.688745E+02   3.689044E+02   3.689622E+02   3.689233E+02   3.690278E+02   3.692311E+02   3.694000E+02   3.697611E+02   3.700489E+02   3.704311E+02   3.704844E+02   3.706656E+02   3.708189E+02   3.709667E+02   3.712278E+02   3.719078E+02   3.719156E+02   3.716867E+02   3.709611E+02   3.708633E+02   3.709078E+02   3.711689E+02   3.720211E+02   3.729100E+02   3.738722E+02   3.743867E+02   3.750278E+02   3.758956E+02   3.768533E+02   3.775744E+02   3.779567E+02   3.782533E+02   3.785911E+02   3.788911E+02   3.791378E+02   3.793745E+02   3.795878E+02   3.798178E+02   3.800356E+02   3.802755E+02   3.805133E+02   3.807511E+02   3.809822E+02   3.812133E+02   3.814611E+02   3.817444E+02   3.820533E+02   3.823900E+02   3.827533E+02   3.831378E+02   3.835244E+02   3.838900E+02   3.841900E+02   3.843889E+02   3.844167E+02   3.843067E+02   3.840878E+02   3.838000E+02   3.835111E+02   3.832578E+02   3.830622E+02   3.829267E+02   3.828678E+02   3.828511E+02   3.828745E+02   3.829122E+02   3.830255E+02   3.831667E+02   3.833344E+02   3.835267E+02   3.837233E+02   3.839222E+02   3.840900E+02   3.842189E+02   3.843078E+02   3.843178E+02   3.842700E+02   3.841544E+02   3.839844E+02   3.838311E+02   3.837233E+02   3.836844E+02   3.836711E+02   3.836844E+02   3.837789E+02   3.839422E+02   3.841667E+02   3.844300E+02   3.847111E+02   3.850056E+02   3.852933E+02   3.855700E+02   3.858222E+02   3.860567E+02   3.863333E+02   3.866645E+02   3.869100E+02   3.870533E+02   3.870967E+02   3.871500E+02   3.872067E+02   3.872167E+02   3.871911E+02   3.871322E+02   3.870689E+02   3.870122E+02   3.869344E+02   3.868644E+02   3.868311E+02   3.868411E+02   3.868433E+02   3.868200E+02   3.867633E+02   3.867733E+02   3.867411E+02   3.867133E+02   3.866245E+02   3.865311E+02   3.864333E+02   3.863400E+02   3.862533E+02   3.861467E+02   3.860255E+02   3.859278E+02   3.858478E+02   3.857767E+02   3.856700E+02   3.855411E+02   3.853722E+02   3.851767E+02   3.849922E+02   3.848156E+02   3.846778E+02   3.845833E+02   3.845589E+02   3.846045E+02   3.847033E+02   3.848311E+02   3.850278E+02   3.852478E+02   3.854700E+02   3.856333E+02   3.857089E+02   3.856867E+02   3.855756E+02   3.854244E+02   3.852567E+02   3.850511E+02   3.848178E+02   3.845700E+02   3.843178E+02   3.840933E+02   3.838922E+02   3.837444E+02   3.836233E+02   3.835522E+02   3.834856E+02   3.835022E+02   3.835389E+02   3.836311E+02   3.836711E+02   3.837389E+02   3.838167E+02   3.839233E+02   3.840389E+02   3.842167E+02   3.844111E+02   3.846322E+02   3.848378E+02   3.850589E+02   3.853278E+02   3.856522E+02   3.860122E+02   3.863611E+02   3.866833E+02   3.873078E+02   3.876878E+02   3.881300E+02   3.882455E+02   3.885367E+02   3.887556E+02   3.889255E+02   3.890922E+02   3.891922E+02   3.892533E+02   3.893000E+02   3.893456E+02   3.894233E+02   3.895244E+02   3.896567E+02   3.897922E+02   3.899200E+02   3.900289E+02   3.901444E+02   3.902378E+02   3.903367E+02   3.904367E+02   3.905456E+02   3.906444E+02   3.907367E+02   3.908189E+02   3.908745E+02   3.909267E+02   3.910022E+02   3.911389E+02   3.913089E+02   3.914655E+02   3.916056E+02   3.917011E+02   3.917711E+02   3.917467E+02   3.916844E+02   3.916322E+02   3.915433E+02   3.915056E+02   3.914989E+02   3.914711E+02   3.914144E+02   3.914033E+02   3.914033E+02   3.913989E+02   3.912889E+02   3.912511E+02   3.912144E+02   3.911778E+02   3.911300E+02   3.910922E+02   3.909867E+02   3.908411E+02   3.906478E+02   3.905022E+02   3.903456E+02   3.901744E+02   3.899844E+02   3.898178E+02   3.896945E+02   3.896189E+02   3.896033E+02   3.896300E+02   3.897111E+02   3.898822E+02   3.900922E+02   3.902989E+02   3.904900E+02   3.906278E+02   3.907633E+02   3.908556E+02   3.909456E+02   3.910000E+02   3.910289E+02   3.910544E+02   3.910956E+02   3.911822E+02   3.913944E+02   3.917633E+02   3.920555E+02   3.922689E+02   3.923133E+02   3.924178E+02   3.925033E+02   3.926200E+02   3.927500E+02   3.928856E+02   3.930478E+02   3.931900E+02   3.933056E+02   3.933922E+02   3.934700E+02   3.935411E+02   3.935945E+02   3.936700E+02   3.937622E+02   3.938644E+02   3.939244E+02   3.939767E+02   3.940000E+02   3.940111E+02   3.940067E+02   3.940045E+02   3.939978E+02   3.939989E+02   3.940278E+02   3.940756E+02   3.941245E+02   3.941456E+02   3.941956E+02   3.942533E+02   3.943355E+02   3.944355E+02   3.945322E+02   3.946300E+02   3.947111E+02   3.948011E+02   3.948833E+02   3.949578E+02   3.949911E+02   3.949811E+02   3.948900E+02   3.947656E+02   3.946033E+02   3.944355E+02   3.942656E+02   3.941078E+02   3.940767E+02   3.940367E+02   3.939889E+02   3.938522E+02   3.937322E+02   3.936122E+02   3.934678E+02   3.933244E+02   3.932033E+02   3.931044E+02   3.930144E+02   3.929544E+02   3.928578E+02   3.927878E+02   3.927478E+02   3.927611E+02   3.928078E+02   3.928311E+02   3.928578E+02   3.928700E+02   3.928856E+02   3.929067E+02   3.929022E+02   3.928822E+02   3.927989E+02   3.926945E+02   3.926167E+02   3.925667E+02
   3.865255E+02   3.864800E+02   3.863989E+02   3.862856E+02   3.861300E+02   3.859822E+02   3.858267E+02   3.857511E+02   3.856711E+02   3.854600E+02   3.851245E+02   3.847356E+02   3.844467E+02   3.842011E+02   3.839578E+02   3.835611E+02   3.829900E+02   3.823000E+02   3.815067E+02   3.806144E+02   3.792978E+02   3.771800E+02   3.746911E+02   3.724544E+02   3.711433E+02   3.704078E+02   3.698678E+02   3.695356E+02   3.692289E+02   3.691689E+02   3.690700E+02   3.690733E+02   3.690133E+02   3.691011E+02   3.691811E+02   3.692967E+02   3.692667E+02   3.693900E+02   3.696478E+02   3.700489E+02   3.705400E+02   3.708322E+02   3.711167E+02   3.711833E+02   3.713878E+02   3.715300E+02   3.716667E+02   3.718100E+02   3.722900E+02   3.722689E+02   3.720500E+02   3.713856E+02   3.711522E+02   3.710433E+02   3.710211E+02   3.712956E+02   3.717944E+02   3.726778E+02   3.736467E+02   3.746178E+02   3.756089E+02   3.764600E+02   3.772033E+02   3.776300E+02   3.780045E+02   3.783033E+02   3.786345E+02   3.789222E+02   3.792189E+02   3.794745E+02   3.797344E+02   3.799633E+02   3.802189E+02   3.804644E+02   3.807211E+02   3.809567E+02   3.811756E+02   3.814100E+02   3.816855E+02   3.819967E+02   3.823333E+02   3.826844E+02   3.830467E+02   3.834011E+02   3.837344E+02   3.839955E+02   3.841422E+02   3.841156E+02   3.839655E+02   3.837422E+02   3.834733E+02   3.832144E+02   3.829789E+02   3.828211E+02   3.827211E+02   3.826867E+02   3.826733E+02   3.826956E+02   3.827278E+02   3.828033E+02   3.829044E+02   3.830422E+02   3.832000E+02   3.833722E+02   3.835533E+02   3.837089E+02   3.838222E+02   3.838911E+02   3.838967E+02   3.838678E+02   3.838044E+02   3.836967E+02   3.836122E+02   3.835478E+02   3.835656E+02   3.835789E+02   3.836200E+02   3.837222E+02   3.838911E+02   3.841267E+02   3.844055E+02   3.846956E+02   3.849933E+02   3.852800E+02   3.855645E+02   3.858044E+02   3.860178E+02   3.863333E+02   3.866267E+02   3.868300E+02   3.868789E+02   3.868911E+02   3.869211E+02   3.869378E+02   3.869456E+02   3.869300E+02   3.868678E+02   3.868122E+02   3.867522E+02   3.866956E+02   3.866333E+02   3.866200E+02   3.866389E+02   3.866467E+02   3.866178E+02   3.866111E+02   3.866789E+02   3.866467E+02   3.865722E+02   3.863978E+02   3.862967E+02   3.862011E+02   3.861245E+02   3.860267E+02   3.859011E+02   3.857689E+02   3.856567E+02   3.855555E+02   3.854622E+02   3.853578E+02   3.852378E+02   3.851044E+02   3.849578E+02   3.848289E+02   3.847022E+02   3.846011E+02   3.845411E+02   3.845233E+02   3.845711E+02   3.846534E+02   3.847689E+02   3.849300E+02   3.851133E+02   3.852911E+02   3.854367E+02   3.854800E+02   3.854522E+02   3.853356E+02   3.852122E+02   3.850633E+02   3.848856E+02   3.846778E+02   3.844567E+02   3.842222E+02   3.840244E+02   3.838533E+02   3.837500E+02   3.836656E+02   3.836167E+02   3.835700E+02   3.835867E+02   3.836422E+02   3.837300E+02   3.837878E+02   3.838600E+02   3.839311E+02   3.840467E+02   3.841656E+02   3.843411E+02   3.845122E+02   3.847033E+02   3.848867E+02   3.850778E+02   3.853578E+02   3.856489E+02   3.859611E+02   3.862422E+02   3.865778E+02   3.871967E+02   3.876156E+02   3.879811E+02   3.880511E+02   3.882233E+02   3.883978E+02   3.885489E+02   3.887078E+02   3.888378E+02   3.889378E+02   3.890333E+02   3.891289E+02   3.892256E+02   3.893489E+02   3.894655E+02   3.896000E+02   3.897178E+02   3.898278E+02   3.899489E+02   3.900333E+02   3.901278E+02   3.902122E+02   3.903311E+02   3.904433E+02   3.905433E+02   3.906345E+02   3.907144E+02   3.907944E+02   3.909033E+02   3.910278E+02   3.911867E+02   3.913300E+02   3.914767E+02   3.915844E+02   3.916522E+02   3.916600E+02   3.916344E+02   3.916555E+02   3.916033E+02   3.915345E+02   3.914178E+02   3.913422E+02   3.913344E+02   3.914100E+02   3.914089E+02   3.913578E+02   3.912155E+02   3.911722E+02   3.911211E+02   3.910700E+02   3.910089E+02   3.909600E+02   3.908589E+02   3.907633E+02   3.906389E+02   3.905556E+02   3.904367E+02   3.903089E+02   3.901744E+02   3.900756E+02   3.900133E+02   3.899756E+02   3.899745E+02   3.900067E+02   3.900833E+02   3.902322E+02   3.904200E+02   3.906111E+02   3.907922E+02   3.909300E+02   3.910689E+02   3.911711E+02   3.912633E+02   3.913178E+02   3.913489E+02   3.913767E+02   3.914222E+02   3.915233E+02   3.917256E+02   3.920178E+02   3.922444E+02   3.923767E+02   3.924011E+02   3.924578E+02   3.925222E+02   3.926178E+02   3.927200E+02   3.928466E+02   3.929989E+02   3.931533E+02   3.932845E+02   3.933845E+02   3.934811E+02   3.935778E+02   3.936733E+02   3.937633E+02   3.938511E+02   3.939444E+02   3.940078E+02   3.940744E+02   3.941233E+02   3.941678E+02   3.941855E+02   3.941911E+02   3.941878E+02   3.941989E+02   3.942178E+02   3.942533E+02   3.942822E+02   3.942922E+02   3.943222E+02   3.943522E+02   3.944111E+02   3.944867E+02   3.945578E+02   3.946278E+02   3.946900E+02   3.947755E+02   3.948478E+02   3.949055E+02   3.949378E+02   3.949389E+02   3.948833E+02   3.947889E+02   3.946567E+02   3.945000E+02   3.943367E+02   3.941844E+02   3.941356E+02   3.940645E+02   3.939889E+02   3.938522E+02   3.937411E+02   3.936222E+02   3.934644E+02   3.933067E+02   3.931922E+02   3.931022E+02   3.930133E+02   3.929211E+02   3.928145E+02   3.927367E+02   3.926822E+02   3.926756E+02   3.926989E+02   3.926989E+02   3.927089E+02   3.927044E+02   3.927245E+02   3.927367E+02   3.927556E+02   3.927556E+02   3.927067E+02   3.926122E+02   3.925483E+02   3.924967E+02